
  -OEChem-07202109493D

 26 27  0     0  0  0  0  0  0999 V2000
   -3.8424    1.3383   -5.2124 C   0  0  0  0  0  0  0  0  0  0  0  0
    2.9156   -2.0589   -3.7372 C   0  0  0  0  0  0  0  0  0  0  0  0
    2.4927   -3.2512   -4.2866 C   0  0  0  0  0  0  0  0  0  0  0  0
    0.8524   -2.0512   -2.9935 C   0  0  0  0  0  0  0  0  0  0  0  0
   -3.2927    0.2382   -3.1890 C   0  0  0  0  0  0  0  0  0  0  0  0
   -2.4445   -0.5030   -2.4651 C   0  0  0  0  0  0  0  0  0  0  0  0
   -0.8538   -0.5588   -4.4591 C   0  0  0  0  0  0  0  0  0  0  0  0
   -2.9788    0.6147   -4.5556 C   0  0  0  0  0  0  0  0  0  0  0  0
   -1.7244    0.1846   -5.1593 C   0  0  0  0  0  0  0  0  0  0  0  0
   -1.1522   -0.9590   -3.0533 C   0  0  0  0  0  0  0  0  0  0  0  0
    4.2386   -1.5218   -3.8954 C   0  0  0  0  0  0  0  0  0  0  0  0
    3.2195   -4.2290   -5.1218 C   0  0  0  0  0  0  0  0  0  0  0  0
   -4.6724    2.0338   -5.8438 N   0  5  0  0  0  0  0  0  0  0  0  0
    1.9762   -1.3692   -2.9958 N   0  0  0  0  0  0  0  0  0  0  0  0
   -0.3347   -1.6742   -2.3474 N   0  0  0  0  0  0  0  0  0  0  0  0
    5.1707   -2.0438   -4.5360 O   0  0  0  0  0  0  0  0  0  0  0  0
    4.4135   -0.3249   -3.2561 O   0  0  0  0  0  0  0  0  0  0  0  0
    0.8546   -3.5310   -3.8624 S   0  0  0  0  0  0  0  0  0  0  0  0
   -1.3352    0.6259   -6.7892 Cl  0  0  0  0  0  0  0  0  0  0  0  0
   -4.2317    0.5639   -2.7515 H   0  0  0  0  0  0  0  0  0  0  0  0
   -2.6719   -0.7860   -1.4437 H   0  0  0  0  0  0  0  0  0  0  0  0
    0.0875   -0.8942   -4.8827 H   0  0  0  0  0  0  0  0  0  0  0  0
    3.7180   -4.9890   -4.4989 H   0  0  0  0  0  0  0  0  0  0  0  0
    2.5476   -4.7550   -5.8206 H   0  0  0  0  0  0  0  0  0  0  0  0
    3.9912   -3.7463   -5.7450 H   0  0  0  0  0  0  0  0  0  0  0  0
    5.3138    0.0509   -3.3588 H   0  0  0  0  0  0  0  0  0  0  0  0
  1  8  2  0  0  0  0
  1 13  2  0  0  0  0
  2  3  2  0  0  0  0
  2 11  1  0  0  0  0
  2 14  1  0  0  0  0
  3 12  1  0  0  0  0
  3 18  1  0  0  0  0
  4 14  2  0  0  0  0
  4 15  1  0  0  0  0
  4 18  1  0  0  0  0
  5  6  2  0  0  0  0
  5  8  1  0  0  0  0
  6 10  1  0  0  0  0
  7  9  2  0  0  0  0
  7 10  1  0  0  0  0
  8  9  1  0  0  0  0
  9 19  1  0  0  0  0
 10 15  2  0  0  0  0
 11 16  2  0  0  0  0
 11 17  1  0  0  0  0
  5 20  1  0  0  0  0
  6 21  1  0  0  0  0
  7 22  1  0  0  0  0
 12 23  1  0  0  0  0
 12 24  1  0  0  0  0
 12 25  1  0  0  0  0
 17 26  1  0  0  0  0
M  CHG  1  13  -1
M  END
$$$$
