
  -OEChem-07202109493D

 29 30  0     0  0  0  0  0  0999 V2000
    1.9548   -1.0313   -0.1094 C   0  0  0  0  0  0  0  0  0  0  0  0
    2.8554   -0.2864    0.6521 C   0  0  0  0  0  0  0  0  0  0  0  0
    3.3535   -0.2289    7.3045 C   0  0  0  0  0  0  0  0  0  0  0  0
    0.9766   -1.7997    0.5217 C   0  0  0  0  0  0  0  0  0  0  0  0
    4.6647   -0.6371    7.0603 C   0  0  0  0  0  0  0  0  0  0  0  0
    2.7779   -0.3101    2.0446 C   0  0  0  0  0  0  0  0  0  0  0  0
    2.3807   -0.3792    6.3162 C   0  0  0  0  0  0  0  0  0  0  0  0
    4.0304   -1.3457    4.8394 C   0  0  0  0  0  0  0  0  0  0  0  0
    0.8991   -1.8234    1.9142 C   0  0  0  0  0  0  0  0  0  0  0  0
    5.0032   -1.1955    5.8278 C   0  0  0  0  0  0  0  0  0  0  0  0
    2.7192   -0.9376    5.0836 C   0  0  0  0  0  0  0  0  0  0  0  0
    1.7997   -1.0786    2.6757 C   0  0  0  0  0  0  0  0  0  0  0  0
   -0.1451   -2.6442    2.5558 C   0  0  0  0  0  0  0  0  0  0  0  0
    6.4053   -1.6311    5.5668 C   0  0  0  0  0  0  0  0  0  0  0  0
    1.7379   -1.0895    4.0870 N   0  0  0  0  0  0  0  0  0  0  0  0
    0.1251   -3.8674    2.8484 O   0  5  0  0  0  0  0  0  0  0  0  0
   -1.2885   -2.1074    2.7994 O   0  0  0  0  0  0  0  0  0  0  0  0
    7.2485   -1.4236    6.6214 F   0  0  0  0  0  0  0  0  0  0  0  0
    6.5197   -2.9608    5.2761 F   0  0  0  0  0  0  0  0  0  0  0  0
    6.9712   -0.9758    4.5116 F   0  0  0  0  0  0  0  0  0  0  0  0
    2.0154   -1.0134   -1.1936 H   0  0  0  0  0  0  0  0  0  0  0  0
    3.6179    0.3112    0.1611 H   0  0  0  0  0  0  0  0  0  0  0  0
    3.0899    0.2059    8.2645 H   0  0  0  0  0  0  0  0  0  0  0  0
    0.2805   -2.3766   -0.0819 H   0  0  0  0  0  0  0  0  0  0  0  0
    5.4163   -0.5162    7.8363 H   0  0  0  0  0  0  0  0  0  0  0  0
    3.4846    0.2745    2.6279 H   0  0  0  0  0  0  0  0  0  0  0  0
    1.3618   -0.0580    6.5172 H   0  0  0  0  0  0  0  0  0  0  0  0
    4.2960   -1.7816    3.8789 H   0  0  0  0  0  0  0  0  0  0  0  0
    0.8014   -1.2349    4.4499 H   0  0  0  0  0  0  0  0  0  0  0  0
  1  2  1  0  0  0  0
  1  4  2  0  0  0  0
  2  6  2  0  0  0  0
  3  5  1  0  0  0  0
  3  7  2  0  0  0  0
  4  9  1  0  0  0  0
  5 10  2  0  0  0  0
  6 12  1  0  0  0  0
  7 11  1  0  0  0  0
  8 10  1  0  0  0  0
  8 11  2  0  0  0  0
  9 12  2  0  0  0  0
  9 13  1  0  0  0  0
 10 14  1  0  0  0  0
 11 15  1  0  0  0  0
 12 15  1  0  0  0  0
 13 16  1  0  0  0  0
 13 17  2  0  0  0  0
 14 18  1  0  0  0  0
 14 19  1  0  0  0  0
 14 20  1  0  0  0  0
  1 21  1  0  0  0  0
  2 22  1  0  0  0  0
  3 23  1  0  0  0  0
  4 24  1  0  0  0  0
  5 25  1  0  0  0  0
  6 26  1  0  0  0  0
  7 27  1  0  0  0  0
  8 28  1  0  0  0  0
 15 29  1  0  0  0  0
M  CHG  1  16  -1
M  END
$$$$
