
  -OEChem-07202109493D

 29 30  0     0  0  0  0  0  0999 V2000
    1.8851   -1.0363   -0.1124 C   0  0  0  0  0  0  0  0  0  0  0  0
    0.8066   -0.4630    0.5610 C   0  0  0  0  0  0  0  0  0  0  0  0
   -1.1037    0.4103    6.7958 C   0  0  0  0  0  0  0  0  0  0  0  0
    2.9210   -1.6309    0.6081 C   0  0  0  0  0  0  0  0  0  0  0  0
    0.7638   -0.4841    1.9551 C   0  0  0  0  0  0  0  0  0  0  0  0
   -1.2178   -0.8940    6.3149 C   0  0  0  0  0  0  0  0  0  0  0  0
   -0.0467    1.2183    6.3766 C   0  0  0  0  0  0  0  0  0  0  0  0
    2.8783   -1.6520    2.0022 C   0  0  0  0  0  0  0  0  0  0  0  0
    1.7997   -1.0786    2.6757 C   0  0  0  0  0  0  0  0  0  0  0  0
    0.7821   -0.5824    4.9955 C   0  0  0  0  0  0  0  0  0  0  0  0
   -0.2749   -1.3904    5.4148 C   0  0  0  0  0  0  0  0  0  0  0  0
    0.8961    0.7219    5.4765 C   0  0  0  0  0  0  0  0  0  0  0  0
    3.9798   -2.2806    2.7212 C   0  0  0  0  0  0  0  0  0  0  0  0
    5.1377   -1.6918    3.1333 C   0  0  0  0  0  0  0  0  0  0  0  0
    1.7323   -1.0828    4.0876 N   0  0  0  0  0  0  0  0  0  0  0  0
    6.0953   -2.2340    3.7572 O   0  5  0  0  0  0  0  0  0  0  0  0
    5.1667   -0.3250    2.7888 O   0  0  0  0  0  0  0  0  0  0  0  0
   -0.4591   -3.0118    4.8458 Cl  0  0  0  0  0  0  0  0  0  0  0  0
    2.1880    1.7606    4.9873 Cl  0  0  0  0  0  0  0  0  0  0  0  0
    1.9177   -1.0197   -1.1979 H   0  0  0  0  0  0  0  0  0  0  0  0
    0.0005   -0.0001   -0.0003 H   0  0  0  0  0  0  0  0  0  0  0  0
   -1.8375    0.7975    7.4967 H   0  0  0  0  0  0  0  0  0  0  0  0
    3.7547   -2.0718    0.0666 H   0  0  0  0  0  0  0  0  0  0  0  0
   -0.0808   -0.0323    2.4693 H   0  0  0  0  0  0  0  0  0  0  0  0
   -2.0480   -1.5096    6.6522 H   0  0  0  0  0  0  0  0  0  0  0  0
    0.0270    2.2326    6.7614 H   0  0  0  0  0  0  0  0  0  0  0  0
    3.8440   -3.3503    2.9181 H   0  0  0  0  0  0  0  0  0  0  0  0
    2.5264   -1.5352    4.5281 H   0  0  0  0  0  0  0  0  0  0  0  0
    6.0205    0.0047    3.1200 H   0  0  0  0  0  0  0  0  0  0  0  0
  1  2  1  0  0  0  0
  1  4  2  0  0  0  0
  2  5  2  0  0  0  0
  3  6  1  0  0  0  0
  3  7  2  0  0  0  0
  4  8  1  0  0  0  0
  5  9  1  0  0  0  0
  6 11  2  0  0  0  0
  7 12  1  0  0  0  0
  8  9  2  0  0  0  0
  8 13  1  0  0  0  0
  9 15  1  0  0  0  0
 10 11  1  0  0  0  0
 10 12  2  0  0  0  0
 10 15  1  0  0  0  0
 11 18  1  0  0  0  0
 12 19  1  0  0  0  0
 13 14  2  0  0  0  0
 14 16  1  0  0  0  0
 14 17  1  0  0  0  0
  1 20  1  0  0  0  0
  2 21  1  0  0  0  0
  3 22  1  0  0  0  0
  4 23  1  0  0  0  0
  5 24  1  0  0  0  0
  6 25  1  0  0  0  0
  7 26  1  0  0  0  0
 13 27  1  0  0  0  0
 15 28  1  0  0  0  0
 17 29  1  0  0  0  0
M  CHG  1  16  -1
M  END
$$$$
