
  -OEChem-07202109493D

 42 43  0     0  0  0  0  0  0999 V2000
   -2.6113   -3.0792    0.4642 C   0  0  0  0  0  0  0  0  0  0  0  0
   -4.0455   -1.6824    1.8165 C   0  0  0  0  0  0  0  0  0  0  0  0
   -3.1279   -1.8215    0.7752 C   0  0  0  0  0  0  0  0  0  0  0  0
   -3.0122   -4.1980    1.1946 C   0  0  0  0  0  0  0  0  0  0  0  0
   -4.4465   -2.8011    2.5469 C   0  0  0  0  0  0  0  0  0  0  0  0
   -3.9298   -4.0589    2.2359 C   0  0  0  0  0  0  0  0  0  0  0  0
   -0.1972   -0.5431   -0.1943 C   0  0  0  0  0  0  0  0  0  0  0  0
   -1.3385   -0.1296    0.3721 C   0  0  0  0  0  0  0  0  0  0  0  0
   -1.1632    0.9017    1.4726 C   0  0  0  0  0  0  0  0  0  0  0  0
    1.1427    0.8603    1.1898 C   0  0  0  0  0  0  0  0  0  0  0  0
   -2.4214   -5.5219    0.8129 C   0  0  0  0  0  0  0  0  0  0  0  0
   -5.8304   -1.0851    3.7659 C   0  0  0  0  0  0  0  0  0  0  0  0
   -4.8415   -3.0278    5.0246 C   0  0  0  0  0  0  0  0  0  0  0  0
   -6.7785   -3.3686    3.5036 C   0  0  0  0  0  0  0  0  0  0  0  0
   -2.6951   -0.6134   -0.0135 C   0  0  0  0  0  0  0  0  0  0  0  0
   -5.4348   -2.5873    3.6536 C   0  0  0  0  0  0  0  0  0  0  0  0
    0.0214    1.3490    1.8356 N   0  0  0  0  0  0  0  0  0  0  0  0
    2.2858    1.3340    1.5852 N   0  0  0  0  0  0  0  0  0  0  0  0
    1.0255   -0.0748    0.1876 N   0  0  0  0  0  0  0  0  0  0  0  0
   -2.2758    1.3935    2.1205 N   0  0  0  0  0  0  0  0  0  0  0  0
   -4.2989   -5.0891    2.9086 O   0  5  0  0  0  0  0  0  0  0  0  0
   -1.8957   -3.1851   -0.3480 H   0  0  0  0  0  0  0  0  0  0  0  0
   -4.4469   -0.7006    2.0571 H   0  0  0  0  0  0  0  0  0  0  0  0
   -0.1607   -1.2747   -0.9917 H   0  0  0  0  0  0  0  0  0  0  0  0
   -1.5013   -5.6980    1.3782 H   0  0  0  0  0  0  0  0  0  0  0  0
   -3.1240   -6.3366    1.0168 H   0  0  0  0  0  0  0  0  0  0  0  0
   -2.1912   -5.5530   -0.2573 H   0  0  0  0  0  0  0  0  0  0  0  0
   -6.5534   -0.9012    4.5691 H   0  0  0  0  0  0  0  0  0  0  0  0
   -4.9593   -0.4525    3.9686 H   0  0  0  0  0  0  0  0  0  0  0  0
   -6.2784   -0.7372    2.8275 H   0  0  0  0  0  0  0  0  0  0  0  0
   -5.5560   -2.8757    5.8410 H   0  0  0  0  0  0  0  0  0  0  0  0
   -4.5603   -4.0873    5.0386 H   0  0  0  0  0  0  0  0  0  0  0  0
   -3.9450   -2.4416    5.2586 H   0  0  0  0  0  0  0  0  0  0  0  0
   -7.4670   -3.1798    4.3361 H   0  0  0  0  0  0  0  0  0  0  0  0
   -7.2997   -3.0797    2.5834 H   0  0  0  0  0  0  0  0  0  0  0  0
   -6.6018   -4.4500    3.4711 H   0  0  0  0  0  0  0  0  0  0  0  0
   -2.7059   -0.8537   -1.0837 H   0  0  0  0  0  0  0  0  0  0  0  0
   -3.4194    0.1994    0.1175 H   0  0  0  0  0  0  0  0  0  0  0  0
    3.0298    0.8988    1.0363 H   0  0  0  0  0  0  0  0  0  0  0  0
    1.8410   -0.4392   -0.2919 H   0  0  0  0  0  0  0  0  0  0  0  0
   -3.1626    1.0525    1.8419 H   0  0  0  0  0  0  0  0  0  0  0  0
   -2.1371    2.0651    2.8347 H   0  0  0  0  0  0  0  0  0  0  0  0
  1  3  2  0  0  0  0
  1  4  1  0  0  0  0
  2  3  1  0  0  0  0
  2  5  2  0  0  0  0
  3 15  1  0  0  0  0
  4  6  2  0  0  0  0
  4 11  1  0  0  0  0
  5  6  1  0  0  0  0
  5 16  1  0  0  0  0
  6 21  1  0  0  0  0
  7  8  2  0  0  0  0
  7 19  1  0  0  0  0
  8  9  1  0  0  0  0
  8 15  1  0  0  0  0
  9 17  2  0  0  0  0
  9 20  1  0  0  0  0
 10 17  1  0  0  0  0
 10 18  2  0  0  0  0
 10 19  1  0  0  0  0
 12 16  1  0  0  0  0
 13 16  1  0  0  0  0
 14 16  1  0  0  0  0
  1 22  1  0  0  0  0
  2 23  1  0  0  0  0
  7 24  1  0  0  0  0
 11 25  1  0  0  0  0
 11 26  1  0  0  0  0
 11 27  1  0  0  0  0
 12 28  1  0  0  0  0
 12 29  1  0  0  0  0
 12 30  1  0  0  0  0
 13 31  1  0  0  0  0
 13 32  1  0  0  0  0
 13 33  1  0  0  0  0
 14 34  1  0  0  0  0
 14 35  1  0  0  0  0
 14 36  1  0  0  0  0
 15 37  1  0  0  0  0
 15 38  1  0  0  0  0
 18 39  1  0  0  0  0
 19 40  1  0  0  0  0
 20 41  1  0  0  0  0
 20 42  1  0  0  0  0
M  CHG  1  21  -1
M  END
$$$$
