
  -OEChem-07202109493D

 38 39  0     0  0  0  0  0  0999 V2000
    1.5990   -3.5492    0.6869 C   0  0  0  0  0  0  0  0  0  0  0  0
    0.8930   -3.2406    2.9766 C   0  0  0  0  0  0  0  0  0  0  0  0
    0.6781   -3.0556    1.6109 C   0  0  0  0  0  0  0  0  0  0  0  0
    2.7348   -4.2279    1.1285 C   0  0  0  0  0  0  0  0  0  0  0  0
    2.0288   -3.9193    3.4183 C   0  0  0  0  0  0  0  0  0  0  0  0
    2.9497   -4.4129    2.4942 C   0  0  0  0  0  0  0  0  0  0  0  0
   -1.7803   -3.1615    1.1962 C   0  0  0  0  0  0  0  0  0  0  0  0
   -2.7794   -3.0804    2.0908 C   0  0  0  0  0  0  0  0  0  0  0  0
   -1.9898   -4.2260    0.1827 C   0  0  0  0  0  0  0  0  0  0  0  0
   -3.9977   -4.7411    1.2263 C   0  0  0  0  0  0  0  0  0  0  0  0
    3.3317   -4.4733   -1.1604 C   0  0  0  0  0  0  0  0  0  0  0  0
    1.2375   -3.5576    5.6317 C   0  0  0  0  0  0  0  0  0  0  0  0
   -3.2893   -0.9054    2.7125 C   0  0  0  0  0  0  0  0  0  0  0  0
   -0.5479   -2.3226    1.1344 C   0  0  0  0  0  0  0  0  0  0  0  0
   -3.9070   -3.8163    2.1816 N   0  5  0  0  0  0  0  0  0  0  0  0
   -3.1412   -4.9734    0.2783 N   0  0  0  0  0  0  0  0  0  0  0  0
   -5.0986   -5.4775    1.2939 N   0  5  0  0  0  0  0  0  0  0  0  0
   -1.1556   -4.4799   -0.7697 N   0  0  0  0  0  0  0  0  0  0  0  0
    4.0599   -5.0763    2.9259 O   0  0  0  0  0  0  0  0  0  0  0  0
    3.6264   -4.7051    0.2156 O   0  0  0  0  0  0  0  0  0  0  0  0
    2.2269   -4.0930    4.7550 O   0  0  0  0  0  0  0  0  0  0  0  0
   -2.7028   -2.1246    3.0907 O   0  0  0  0  0  0  0  0  0  0  0  0
    1.4338   -3.4061   -0.3783 H   0  0  0  0  0  0  0  0  0  0  0  0
    0.1766   -2.8568    3.6991 H   0  0  0  0  0  0  0  0  0  0  0  0
    4.1215   -4.9043   -1.7806 H   0  0  0  0  0  0  0  0  0  0  0  0
    3.2571   -3.3981   -1.3419 H   0  0  0  0  0  0  0  0  0  0  0  0
    2.3791   -4.9491   -1.4050 H   0  0  0  0  0  0  0  0  0  0  0  0
    1.5168   -3.7652    6.6675 H   0  0  0  0  0  0  0  0  0  0  0  0
    0.2678   -4.0088    5.4071 H   0  0  0  0  0  0  0  0  0  0  0  0
    1.1777   -2.4769    5.4824 H   0  0  0  0  0  0  0  0  0  0  0  0
   -3.2028   -0.1886    3.5327 H   0  0  0  0  0  0  0  0  0  0  0  0
   -4.3416   -1.0673    2.4654 H   0  0  0  0  0  0  0  0  0  0  0  0
   -2.7668   -0.5166    1.8352 H   0  0  0  0  0  0  0  0  0  0  0  0
   -0.6921   -1.4198    1.7397 H   0  0  0  0  0  0  0  0  0  0  0  0
   -0.4011   -1.9734    0.1058 H   0  0  0  0  0  0  0  0  0  0  0  0
   -5.0267   -6.2335    0.6092 H   0  0  0  0  0  0  0  0  0  0  0  0
   -1.5174   -5.2526   -1.3368 H   0  0  0  0  0  0  0  0  0  0  0  0
    4.5978   -5.3551    2.1688 H   0  0  0  0  0  0  0  0  0  0  0  0
  1  3  2  0  0  0  0
  1  4  1  0  0  0  0
  2  3  1  0  0  0  0
  2  5  2  0  0  0  0
  3 14  1  0  0  0  0
  4  6  2  0  0  0  0
  4 20  1  0  0  0  0
  5  6  1  0  0  0  0
  5 21  1  0  0  0  0
  6 19  1  0  0  0  0
  7  8  2  0  0  0  0
  7  9  1  0  0  0  0
  7 14  1  0  0  0  0
  8 15  1  0  0  0  0
  8 22  1  0  0  0  0
  9 16  1  0  0  0  0
  9 18  2  0  0  0  0
 10 15  1  0  0  0  0
 10 16  2  0  0  0  0
 10 17  1  0  0  0  0
 11 20  1  0  0  0  0
 12 21  1  0  0  0  0
 13 22  1  0  0  0  0
  1 23  1  0  0  0  0
  2 24  1  0  0  0  0
 11 25  1  0  0  0  0
 11 26  1  0  0  0  0
 11 27  1  0  0  0  0
 12 28  1  0  0  0  0
 12 29  1  0  0  0  0
 12 30  1  0  0  0  0
 13 31  1  0  0  0  0
 13 32  1  0  0  0  0
 13 33  1  0  0  0  0
 14 34  1  0  0  0  0
 14 35  1  0  0  0  0
 17 36  1  0  0  0  0
 18 37  1  0  0  0  0
 19 38  1  0  0  0  0
M  CHG  2  15  -1  17  -1
M  END
$$$$
