
  -OEChem-07202109493D

 46 49  0     0  0  0  0  0  0999 V2000
    1.1226    0.0809   -5.6497 C   0  0  0  0  0  0  0  0  0  0  0  0
    0.0679   -0.5041   -6.3795 C   0  0  0  0  0  0  0  0  0  0  0  0
    1.0699    0.1787   -4.2570 C   0  0  0  0  0  0  0  0  0  0  0  0
   -1.0682   -1.0067   -5.7363 C   0  0  0  0  0  0  0  0  0  0  0  0
   -2.0358   -1.9663    5.9256 C   0  0  0  0  0  0  0  0  0  0  0  0
   -3.2800   -0.0129    6.2295 C   0  0  0  0  0  0  0  0  0  0  0  0
   -3.2293   -1.3003    5.7351 C   0  0  0  0  0  0  0  0  0  0  0  0
   -0.0518   -0.3179   -3.6322 C   0  0  0  0  0  0  0  0  0  0  0  0
   -1.1205   -0.9093   -4.3615 C   0  0  0  0  0  0  0  0  0  0  0  0
   -1.1419   -0.1653    6.9859 C   0  0  0  0  0  0  0  0  0  0  0  0
   -3.6544   -2.9789    2.8803 C   0  0  0  0  0  0  0  0  0  0  0  0
   -4.2303   -1.9711    3.5499 C   0  0  0  0  0  0  0  0  0  0  0  0
   -4.7341   -0.8007    2.7364 C   0  0  0  0  0  0  0  0  0  0  0  0
   -1.6284   -0.9672   -2.1601 C   0  0  0  0  0  0  0  0  0  0  0  0
   -3.9922   -1.8828    0.8246 C   0  0  0  0  0  0  0  0  0  0  0  0
   -2.2469   -1.1738   -0.9872 C   0  0  0  0  0  0  0  0  0  0  0  0
   -3.3215   -1.9639   -3.8530 C   0  0  0  0  0  0  0  0  0  0  0  0
    1.0966   -0.3782    7.7602 C   0  0  0  0  0  0  0  0  0  0  0  0
   -4.3993   -1.9362    5.0327 C   0  0  0  0  0  0  0  0  0  0  0  0
   -0.9677   -1.4271    6.5490 N   0  0  0  0  0  0  0  0  0  0  0  0
   -2.2514    0.5880    6.8627 N   0  0  0  0  0  0  0  0  0  0  0  0
   -4.5684   -0.8458    1.3565 N   0  0  0  0  0  0  0  0  0  0  0  0
   -0.3788   -0.3598   -2.2743 N   0  0  0  0  0  0  0  0  0  0  0  0
   -3.5230   -2.9604    1.5248 N   0  0  0  0  0  0  0  0  0  0  0  0
   -2.1042   -1.3111   -3.4401 N   0  0  0  0  0  0  0  0  0  0  0  0
   -5.2689    0.1453    3.3098 O   0  0  0  0  0  0  0  0  0  0  0  0
   -0.0734    0.4160    7.6281 O   0  0  0  0  0  0  0  0  0  0  0  0
   -3.7924   -1.9283   -0.8843 S   0  0  0  0  0  0  0  0  0  0  0  0
    1.9907    0.4619   -6.1818 H   0  0  0  0  0  0  0  0  0  0  0  0
    0.1407   -0.5637   -7.4627 H   0  0  0  0  0  0  0  0  0  0  0  0
    1.8824    0.6287   -3.6987 H   0  0  0  0  0  0  0  0  0  0  0  0
   -1.8711   -1.4533   -6.3116 H   0  0  0  0  0  0  0  0  0  0  0  0
   -1.8942   -2.9830    5.5728 H   0  0  0  0  0  0  0  0  0  0  0  0
   -4.1742    0.5948    6.1307 H   0  0  0  0  0  0  0  0  0  0  0  0
   -3.2574   -3.8658    3.3573 H   0  0  0  0  0  0  0  0  0  0  0  0
   -1.7667   -0.8601   -0.0702 H   0  0  0  0  0  0  0  0  0  0  0  0
   -3.1680   -3.0530   -3.8657 H   0  0  0  0  0  0  0  0  0  0  0  0
   -4.1281   -1.7156   -3.1474 H   0  0  0  0  0  0  0  0  0  0  0  0
   -3.5977   -1.6209   -4.8610 H   0  0  0  0  0  0  0  0  0  0  0  0
    1.8678    0.1920    8.2839 H   0  0  0  0  0  0  0  0  0  0  0  0
    1.4538   -0.6699    6.7694 H   0  0  0  0  0  0  0  0  0  0  0  0
    0.8548   -1.2744    8.3366 H   0  0  0  0  0  0  0  0  0  0  0  0
   -4.5390   -2.9575    5.4059 H   0  0  0  0  0  0  0  0  0  0  0  0
   -5.3225   -1.3985    5.2768 H   0  0  0  0  0  0  0  0  0  0  0  0
    0.1700   -0.0235   -1.5023 H   0  0  0  0  0  0  0  0  0  0  0  0
   -3.0792   -3.7503    1.0713 H   0  0  0  0  0  0  0  0  0  0  0  0
  1  2  1  0  0  0  0
  1  3  2  0  0  0  0
  2  4  2  0  0  0  0
  3  8  1  0  0  0  0
  4  9  1  0  0  0  0
  5  7  1  0  0  0  0
  5 20  2  0  0  0  0
  6  7  2  0  0  0  0
  6 21  1  0  0  0  0
  7 19  1  0  0  0  0
  8  9  2  0  0  0  0
  8 23  1  0  0  0  0
  9 25  1  0  0  0  0
 10 20  1  0  0  0  0
 10 21  2  0  0  0  0
 10 27  1  0  0  0  0
 11 12  2  0  0  0  0
 11 24  1  0  0  0  0
 12 13  1  0  0  0  0
 12 19  1  0  0  0  0
 13 22  1  0  0  0  0
 13 26  2  0  0  0  0
 14 16  2  0  0  0  0
 14 23  1  0  0  0  0
 14 25  1  0  0  0  0
 15 22  2  0  0  0  0
 15 24  1  0  0  0  0
 15 28  1  0  0  0  0
 16 28  1  0  0  0  0
 17 25  1  0  0  0  0
 18 27  1  0  0  0  0
  1 29  1  0  0  0  0
  2 30  1  0  0  0  0
  3 31  1  0  0  0  0
  4 32  1  0  0  0  0
  5 33  1  0  0  0  0
  6 34  1  0  0  0  0
 11 35  1  0  0  0  0
 16 36  1  0  0  0  0
 17 37  1  0  0  0  0
 17 38  1  0  0  0  0
 17 39  1  0  0  0  0
 18 40  1  0  0  0  0
 18 41  1  0  0  0  0
 18 42  1  0  0  0  0
 19 43  1  0  0  0  0
 19 44  1  0  0  0  0
 23 45  1  0  0  0  0
 24 46  1  0  0  0  0
M  END
$$$$
