
  -OEChem-07202109493D

 41 42  0     0  0  0  0  0  0999 V2000
   -0.0817   -3.6374    1.7716 C   0  0  0  0  0  0  0  0  0  0  0  0
   -1.4481   -2.8446    3.5996 C   0  0  0  0  0  0  0  0  0  0  0  0
   -1.0429   -2.7567    2.2677 C   0  0  0  0  0  0  0  0  0  0  0  0
    0.4741   -4.6061    2.6073 C   0  0  0  0  0  0  0  0  0  0  0  0
   -0.8922   -3.8132    4.4353 C   0  0  0  0  0  0  0  0  0  0  0  0
    0.0689   -4.6940    3.9391 C   0  0  0  0  0  0  0  0  0  0  0  0
   -4.1433   -1.7394    1.5469 C   0  0  0  0  0  0  0  0  0  0  0  0
   -3.0173   -2.0683    0.9058 C   0  0  0  0  0  0  0  0  0  0  0  0
   -3.1997   -2.8429   -0.3484 C   0  0  0  0  0  0  0  0  0  0  0  0
   -5.4452   -2.7514    0.0029 C   0  0  0  0  0  0  0  0  0  0  0  0
    1.5019   -5.5398    2.0578 C   0  0  0  0  0  0  0  0  0  0  0  0
   -2.4140   -2.8066    6.1721 C   0  0  0  0  0  0  0  0  0  0  0  0
   -0.1447   -3.6694    6.8368 C   0  0  0  0  0  0  0  0  0  0  0  0
   -1.9807   -5.2523    6.2846 C   0  0  0  0  0  0  0  0  0  0  0  0
   -1.6434   -1.7112    1.3657 C   0  0  0  0  0  0  0  0  0  0  0  0
   -1.3385   -3.8914    5.8582 C   0  0  0  0  0  0  0  0  0  0  0  0
   -4.4286   -3.1589   -0.7567 N   0  5  0  0  0  0  0  0  0  0  0  0
   -5.3921   -2.0750    1.1086 N   0  0  0  0  0  0  0  0  0  0  0  0
   -6.6343   -3.1038   -0.4686 N   0  5  0  0  0  0  0  0  0  0  0  0
   -2.1952   -3.2269   -1.0680 N   0  0  0  0  0  0  0  0  0  0  0  0
    0.6131   -5.6407    4.7563 O   0  0  0  0  0  0  0  0  0  0  0  0
    0.2336   -3.5689    0.7331 H   0  0  0  0  0  0  0  0  0  0  0  0
   -2.1958   -2.1557    3.9862 H   0  0  0  0  0  0  0  0  0  0  0  0
   -4.1109   -1.1735    2.4719 H   0  0  0  0  0  0  0  0  0  0  0  0
    2.5058   -5.1189    2.1875 H   0  0  0  0  0  0  0  0  0  0  0  0
    1.4632   -6.5133    2.5621 H   0  0  0  0  0  0  0  0  0  0  0  0
    1.3367   -5.7270    0.9895 H   0  0  0  0  0  0  0  0  0  0  0  0
   -2.7592   -2.8423    7.2120 H   0  0  0  0  0  0  0  0  0  0  0  0
   -2.0284   -1.7961    5.9976 H   0  0  0  0  0  0  0  0  0  0  0  0
   -3.2891   -2.9410    5.5252 H   0  0  0  0  0  0  0  0  0  0  0  0
   -0.4664   -3.7257    7.8824 H   0  0  0  0  0  0  0  0  0  0  0  0
    0.6520   -4.4112    6.7066 H   0  0  0  0  0  0  0  0  0  0  0  0
    0.2948   -2.6771    6.6808 H   0  0  0  0  0  0  0  0  0  0  0  0
   -2.2917   -5.2604    7.3362 H   0  0  0  0  0  0  0  0  0  0  0  0
   -2.8720   -5.4688    5.6840 H   0  0  0  0  0  0  0  0  0  0  0  0
   -1.2710   -6.0773    6.1525 H   0  0  0  0  0  0  0  0  0  0  0  0
   -1.6747   -0.7494    1.8913 H   0  0  0  0  0  0  0  0  0  0  0  0
   -1.0006   -1.5544    0.4918 H   0  0  0  0  0  0  0  0  0  0  0  0
   -6.8822   -2.4694   -1.2309 H   0  0  0  0  0  0  0  0  0  0  0  0
   -2.5442   -3.7416   -1.8810 H   0  0  0  0  0  0  0  0  0  0  0  0
    1.2612   -6.1707    4.2674 H   0  0  0  0  0  0  0  0  0  0  0  0
  1  3  2  0  0  0  0
  1  4  1  0  0  0  0
  2  3  1  0  0  0  0
  2  5  2  0  0  0  0
  3 15  1  0  0  0  0
  4  6  2  0  0  0  0
  4 11  1  0  0  0  0
  5  6  1  0  0  0  0
  5 16  1  0  0  0  0
  6 21  1  0  0  0  0
  7  8  2  0  0  0  0
  7 18  1  0  0  0  0
  8  9  1  0  0  0  0
  8 15  1  0  0  0  0
  9 17  1  0  0  0  0
  9 20  2  0  0  0  0
 10 17  1  0  0  0  0
 10 18  2  0  0  0  0
 10 19  1  0  0  0  0
 12 16  1  0  0  0  0
 13 16  1  0  0  0  0
 14 16  1  0  0  0  0
  1 22  1  0  0  0  0
  2 23  1  0  0  0  0
  7 24  1  0  0  0  0
 11 25  1  0  0  0  0
 11 26  1  0  0  0  0
 11 27  1  0  0  0  0
 12 28  1  0  0  0  0
 12 29  1  0  0  0  0
 12 30  1  0  0  0  0
 13 31  1  0  0  0  0
 13 32  1  0  0  0  0
 13 33  1  0  0  0  0
 14 34  1  0  0  0  0
 14 35  1  0  0  0  0
 14 36  1  0  0  0  0
 15 37  1  0  0  0  0
 15 38  1  0  0  0  0
 19 39  1  0  0  0  0
 20 40  1  0  0  0  0
 21 41  1  0  0  0  0
M  CHG  2  17  -1  19  -1
M  END
$$$$
