
  -OEChem-07202109493D

 27 29  0     0  0  0  0  0  0999 V2000
   -2.8164    4.6704    2.8654 C   0  0  0  0  0  0  0  0  0  0  0  0
   -1.5266    4.8387    2.3615 C   0  0  0  0  0  0  0  0  0  0  0  0
   -3.4402    3.4254    2.7837 C   0  0  0  0  0  0  0  0  0  0  0  0
   -0.8607    3.7620    1.7759 C   0  0  0  0  0  0  0  0  0  0  0  0
   -2.7742    2.3488    2.1981 C   0  0  0  0  0  0  0  0  0  0  0  0
   -1.4845    2.5170    1.6941 C   0  0  0  0  0  0  0  0  0  0  0  0
   -0.7902    1.3934    1.0831 C   0  0  0  0  0  0  0  0  0  0  0  0
    0.4132   -0.6604   -0.3276 C   0  0  0  0  0  0  0  0  0  0  0  0
   -0.0078    0.5466    1.7961 C   0  0  0  0  0  0  0  0  0  0  0  0
   -0.3678    0.2016   -0.9913 C   0  0  0  0  0  0  0  0  0  0  0  0
    0.8248   -1.5396   -1.3983 C   0  0  0  0  0  0  0  0  0  0  0  0
    0.7054   -0.6218    1.1289 C   0  0  0  0  0  0  0  0  0  0  0  0
   -0.4412   -0.0984   -2.3292 N   0  0  0  0  0  0  0  0  0  0  0  0
    0.2562   -1.1200   -2.5771 N   0  0  0  0  0  0  0  0  0  0  0  0
   -0.9662    1.2255   -0.2839 N   0  0  0  0  0  0  0  0  0  0  0  0
    1.5945   -2.5535   -1.2882 N   0  3  0  0  0  0  0  0  0  0  0  0
    0.2605    0.6913    3.4974 Cl  0  0  0  0  0  0  0  0  0  0  0  0
   -3.3344    5.5083    3.3226 H   0  0  0  0  0  0  0  0  0  0  0  0
   -1.0403    5.8077    2.4261 H   0  0  0  0  0  0  0  0  0  0  0  0
   -4.4439    3.2940    3.1771 H   0  0  0  0  0  0  0  0  0  0  0  0
    0.1443    3.9087    1.3874 H   0  0  0  0  0  0  0  0  0  0  0  0
   -3.2738    1.3846    2.1418 H   0  0  0  0  0  0  0  0  0  0  0  0
    0.3779   -1.5606    1.5903 H   0  0  0  0  0  0  0  0  0  0  0  0
    1.7866   -0.5242    1.2806 H   0  0  0  0  0  0  0  0  0  0  0  0
   -1.5564    1.8739   -0.7904 H   0  0  0  0  0  0  0  0  0  0  0  0
    2.0042   -2.8407   -0.3836 H   0  0  0  0  0  0  0  0  0  0  0  0
    1.8508   -3.1434   -2.0975 H   0  0  0  0  0  0  0  0  0  0  0  0
  1  2  1  0  0  0  0
  1  3  2  0  0  0  0
  2  4  2  0  0  0  0
  3  5  1  0  0  0  0
  4  6  1  0  0  0  0
  5  6  2  0  0  0  0
  6  7  1  0  0  0  0
  7  9  2  0  0  0  0
  7 15  1  0  0  0  0
  8 10  2  0  0  0  0
  8 11  1  0  0  0  0
  8 12  1  0  0  0  0
  9 12  1  0  0  0  0
  9 17  1  0  0  0  0
 10 13  1  0  0  0  0
 10 15  1  0  0  0  0
 11 14  1  0  0  0  0
 11 16  2  0  0  0  0
 13 14  2  0  0  0  0
  1 18  1  0  0  0  0
  2 19  1  0  0  0  0
  3 20  1  0  0  0  0
  4 21  1  0  0  0  0
  5 22  1  0  0  0  0
 12 23  1  0  0  0  0
 12 24  1  0  0  0  0
 15 25  1  0  0  0  0
 16 26  1  0  0  0  0
 16 27  1  0  0  0  0
M  CHG  1  16   1
M  END
$$$$
