
  -OEChem-07202109493D

 50 53  0     1  0  0  0  0  0999 V2000
    1.4280    2.0291   11.9896 C   0  0  0  0  0  0  0  0  0  0  0  0
    1.1698    1.5061   13.2566 C   0  0  0  0  0  0  0  0  0  0  0  0
    1.0631    1.3107   10.8509 C   0  0  0  0  0  0  0  0  0  0  0  0
    6.0406   -4.2161   13.2920 C   0  0  0  0  0  0  0  0  0  0  0  0
    5.5907   -3.1945   14.1406 C   0  0  0  0  0  0  0  0  0  0  0  0
    0.5469    0.2647   13.3851 C   0  0  0  0  0  0  0  0  0  0  0  0
    4.3272   -2.0888   12.3440 C   0  0  0  0  0  0  0  0  0  0  0  0
    2.7103   -1.8592    9.7142 C   0  0  0  0  0  0  0  0  0  0  0  0
    5.2144   -4.4682    9.8104 C   0  0  0  0  0  0  0  0  0  0  0  0
    0.4402    0.0693   10.9794 C   0  0  0  0  0  0  0  0  0  0  0  0
    4.7811   -3.1082   11.5153 C   0  0  0  0  0  0  0  0  0  0  0  0
    5.6089   -4.1359   11.9733 C   0  0  0  0  0  0  0  0  0  0  0  0
    2.1133   -1.1676    8.6209 C   0  0  0  0  0  0  0  0  0  0  0  0
    4.7544   -2.1561   13.6778 C   0  0  0  0  0  0  0  0  0  0  0  0
    0.1821   -0.4537   12.2464 C   0  0  0  0  0  0  0  0  0  0  0  0
    2.7756   -1.4027    7.4362 C   0  0  0  0  0  0  0  0  0  0  0  0
    3.8062   -2.5969    9.3233 C   0  0  0  0  0  0  0  0  0  0  0  0
    2.4941   -0.9007    6.1292 C   0  0  0  0  0  0  0  0  0  0  0  0
   -1.3185   -0.2936    9.2109 C   0  0  0  0  0  0  0  0  0  0  0  0
    2.7179   -1.5481   15.4769 C   0  0  0  0  0  0  0  0  0  0  0  0
    0.0632   -0.6772    9.7220 C   0  0  1  0  0  0  0  0  0  0  0  0
    4.5660   -3.3574   10.1753 N   0  0  0  0  0  0  0  0  0  0  0  0
    5.8485   -4.9492   10.8848 N   0  3  0  0  0  0  0  0  0  0  0  0
    1.3984   -0.0388    5.9599 N   0  0  0  0  0  0  0  0  0  0  0  0
    3.1806   -1.2149    5.1236 O   0  0  0  0  0  0  0  0  0  0  0  0
    5.2143   -0.8516   15.8736 O   0  0  0  0  0  0  0  0  0  0  0  0
    3.9005    0.2835   14.0484 O   0  0  0  0  0  0  0  0  0  0  0  0
    1.0317   -0.3735    8.7086 O   0  0  0  0  0  0  0  0  0  0  0  0
    4.1114   -2.4537    7.6444 S   0  0  0  0  0  0  0  0  0  0  0  0
    4.2354   -0.9171   14.7995 S   0  0  0  0  0  0  0  0  0  0  0  0
   -0.5869   -1.9862   12.4448 Cl  0  0  0  0  0  0  0  0  0  0  0  0
    1.9124    2.9962   11.8898 H   0  0  0  0  0  0  0  0  0  0  0  0
    1.4529    2.0663   14.1430 H   0  0  0  0  0  0  0  0  0  0  0  0
    1.2686    1.7276    9.8684 H   0  0  0  0  0  0  0  0  0  0  0  0
    6.6820   -5.0179   13.6341 H   0  0  0  0  0  0  0  0  0  0  0  0
    5.9008   -3.2118   15.1837 H   0  0  0  0  0  0  0  0  0  0  0  0
    0.3518   -0.1283   14.3796 H   0  0  0  0  0  0  0  0  0  0  0  0
    3.6857   -1.2987   11.9741 H   0  0  0  0  0  0  0  0  0  0  0  0
    2.3518   -1.8162   10.7353 H   0  0  0  0  0  0  0  0  0  0  0  0
    5.2315   -4.9096    8.8265 H   0  0  0  0  0  0  0  0  0  0  0  0
   -1.3949    0.7840    9.0340 H   0  0  0  0  0  0  0  0  0  0  0  0
   -2.1055   -0.5849    9.9157 H   0  0  0  0  0  0  0  0  0  0  0  0
   -1.5340   -0.8173    8.2731 H   0  0  0  0  0  0  0  0  0  0  0  0
    2.3315   -0.8207   16.1926 H   0  0  0  0  0  0  0  0  0  0  0  0
    2.0101   -1.6934   14.6594 H   0  0  0  0  0  0  0  0  0  0  0  0
    2.9302   -2.4966   15.9724 H   0  0  0  0  0  0  0  0  0  0  0  0
    0.0919   -1.7613    9.8841 H   0  0  0  0  0  0  0  0  0  0  0  0
    6.4209   -5.7890   10.8958 H   0  0  0  0  0  0  0  0  0  0  0  0
    0.8376    0.2032    6.7696 H   0  0  0  0  0  0  0  0  0  0  0  0
    1.1472    0.3507    5.0571 H   0  0  0  0  0  0  0  0  0  0  0  0
  1  2  1  0  0  0  0
  1  3  2  0  0  0  0
  2  6  2  0  0  0  0
  3 10  1  0  0  0  0
  4  5  1  0  0  0  0
  4 12  2  0  0  0  0
  5 14  2  0  0  0  0
  6 15  1  0  0  0  0
  7 11  2  0  0  0  0
  7 14  1  0  0  0  0
  8 13  1  0  0  0  0
  8 17  2  0  0  0  0
  9 22  1  0  0  0  0
  9 23  2  0  0  0  0
 10 15  2  0  0  0  0
 10 21  1  0  0  0  0
 11 12  1  0  0  0  0
 11 22  1  0  0  0  0
 12 23  1  0  0  0  0
 13 16  2  0  0  0  0
 13 28  1  0  0  0  0
 14 30  1  0  0  0  0
 15 31  1  0  0  0  0
 16 18  1  0  0  0  0
 16 29  1  0  0  0  0
 17 22  1  0  0  0  0
 17 29  1  0  0  0  0
 18 24  1  0  0  0  0
 18 25  2  0  0  0  0
 19 21  1  0  0  0  0
 20 30  1  0  0  0  0
 21 28  1  0  0  0  0
 26 30  2  0  0  0  0
 27 30  2  0  0  0  0
  1 32  1  0  0  0  0
  2 33  1  0  0  0  0
  3 34  1  0  0  0  0
  4 35  1  0  0  0  0
  5 36  1  0  0  0  0
  6 37  1  0  0  0  0
  7 38  1  0  0  0  0
  8 39  1  0  0  0  0
  9 40  1  0  0  0  0
 19 41  1  0  0  0  0
 19 42  1  0  0  0  0
 19 43  1  0  0  0  0
 20 44  1  0  0  0  0
 20 45  1  0  0  0  0
 20 46  1  0  0  0  0
 21 47  1  0  0  0  0
 23 48  1  0  0  0  0
 24 49  1  0  0  0  0
 24 50  1  0  0  0  0
M  CHG  1  23   1
M  END
$$$$
