
  -OEChem-07202109493D

 42 43  0     0  0  0  0  0  0999 V2000
   -3.0243   -2.6407   -0.6978 C   0  0  0  0  0  0  0  0  0  0  0  0
   -4.3477   -1.0931    0.6023 C   0  0  0  0  0  0  0  0  0  0  0  0
   -3.3370   -1.3324   -0.3288 C   0  0  0  0  0  0  0  0  0  0  0  0
   -3.7224   -3.7097   -0.1359 C   0  0  0  0  0  0  0  0  0  0  0  0
   -5.0458   -2.1620    1.1642 C   0  0  0  0  0  0  0  0  0  0  0  0
   -4.7331   -3.4703    0.7951 C   0  0  0  0  0  0  0  0  0  0  0  0
   -4.2267    1.6631   -1.5241 C   0  0  0  0  0  0  0  0  0  0  0  0
   -3.3701    0.5285   -1.9911 C   0  0  0  0  0  0  0  0  0  0  0  0
   -3.4134    0.2801   -3.3223 C   0  0  0  0  0  0  0  0  0  0  0  0
   -4.9957    2.1184   -3.6069 C   0  0  0  0  0  0  0  0  0  0  0  0
   -3.3401   -5.0920   -0.5725 C   0  0  0  0  0  0  0  0  0  0  0  0
   -6.2427   -0.3024    2.3704 C   0  0  0  0  0  0  0  0  0  0  0  0
   -5.8140   -2.4891    3.5411 C   0  0  0  0  0  0  0  0  0  0  0  0
   -7.5518   -2.3291    1.7703 C   0  0  0  0  0  0  0  0  0  0  0  0
   -2.5840   -0.1792   -0.9350 C   0  0  0  0  0  0  0  0  0  0  0  0
   -6.1205   -1.8405    2.1587 C   0  0  0  0  0  0  0  0  0  0  0  0
   -4.9879    2.4127   -2.2582 N   0  0  0  0  0  0  0  0  0  0  0  0
   -5.7539    2.8624   -4.3543 N   0  0  0  0  0  0  0  0  0  0  0  0
   -4.2308    1.0857   -4.1058 N   0  0  0  0  0  0  0  0  0  0  0  0
   -2.6874   -0.7247   -3.9096 N   0  0  0  0  0  0  0  0  0  0  0  0
   -5.3758   -4.4547    1.3128 O   0  5  0  0  0  0  0  0  0  0  0  0
   -2.2356   -2.8248   -1.4238 H   0  0  0  0  0  0  0  0  0  0  0  0
   -4.5896   -0.0720    0.8885 H   0  0  0  0  0  0  0  0  0  0  0  0
   -4.1910    1.8640   -0.4402 H   0  0  0  0  0  0  0  0  0  0  0  0
   -2.5555   -5.4868    0.0800 H   0  0  0  0  0  0  0  0  0  0  0  0
   -4.2027   -5.7655   -0.5369 H   0  0  0  0  0  0  0  0  0  0  0  0
   -2.9742   -5.0885   -1.6046 H   0  0  0  0  0  0  0  0  0  0  0  0
   -7.0229   -0.0397    3.0944 H   0  0  0  0  0  0  0  0  0  0  0  0
   -5.3059    0.1299    2.7389 H   0  0  0  0  0  0  0  0  0  0  0  0
   -6.4846    0.1952    1.4238 H   0  0  0  0  0  0  0  0  0  0  0  0
   -6.5936   -2.2603    4.2759 H   0  0  0  0  0  0  0  0  0  0  0  0
   -5.7385   -3.5814    3.4840 H   0  0  0  0  0  0  0  0  0  0  0  0
   -4.8654   -2.1096    3.9390 H   0  0  0  0  0  0  0  0  0  0  0  0
   -8.3017   -2.0707    2.5278 H   0  0  0  0  0  0  0  0  0  0  0  0
   -7.8785   -1.8762    0.8269 H   0  0  0  0  0  0  0  0  0  0  0  0
   -7.5757   -3.4188    1.6525 H   0  0  0  0  0  0  0  0  0  0  0  0
   -2.3108    0.5343   -0.1496 H   0  0  0  0  0  0  0  0  0  0  0  0
   -1.6399   -0.5292   -1.3661 H   0  0  0  0  0  0  0  0  0  0  0  0
   -5.6727    2.5466   -5.3229 H   0  0  0  0  0  0  0  0  0  0  0  0
   -4.2407    0.8745   -5.0980 H   0  0  0  0  0  0  0  0  0  0  0  0
   -2.1100   -1.2876   -3.3297 H   0  0  0  0  0  0  0  0  0  0  0  0
   -2.7674   -0.8502   -4.8915 H   0  0  0  0  0  0  0  0  0  0  0  0
  1  3  2  0  0  0  0
  1  4  1  0  0  0  0
  2  3  1  0  0  0  0
  2  5  2  0  0  0  0
  3 15  1  0  0  0  0
  4  6  2  0  0  0  0
  4 11  1  0  0  0  0
  5  6  1  0  0  0  0
  5 16  1  0  0  0  0
  6 21  1  0  0  0  0
  7  8  1  0  0  0  0
  7 17  2  0  0  0  0
  8  9  2  0  0  0  0
  8 15  1  0  0  0  0
  9 19  1  0  0  0  0
  9 20  1  0  0  0  0
 10 17  1  0  0  0  0
 10 18  2  0  0  0  0
 10 19  1  0  0  0  0
 12 16  1  0  0  0  0
 13 16  1  0  0  0  0
 14 16  1  0  0  0  0
  1 22  1  0  0  0  0
  2 23  1  0  0  0  0
  7 24  1  0  0  0  0
 11 25  1  0  0  0  0
 11 26  1  0  0  0  0
 11 27  1  0  0  0  0
 12 28  1  0  0  0  0
 12 29  1  0  0  0  0
 12 30  1  0  0  0  0
 13 31  1  0  0  0  0
 13 32  1  0  0  0  0
 13 33  1  0  0  0  0
 14 34  1  0  0  0  0
 14 35  1  0  0  0  0
 14 36  1  0  0  0  0
 15 37  1  0  0  0  0
 15 38  1  0  0  0  0
 18 39  1  0  0  0  0
 19 40  1  0  0  0  0
 20 41  1  0  0  0  0
 20 42  1  0  0  0  0
M  CHG  1  21  -1
M  END
$$$$
