
  -OEChem-07202109493D

 38 40  0     0  0  0  0  0  0999 V2000
    0.8460    1.5706   -4.1205 C   0  0  0  0  0  0  0  0  0  0  0  0
    2.0807    2.2097   -3.9856 C   0  0  0  0  0  0  0  0  0  0  0  0
    1.5420    2.9203   -1.7098 C   0  0  0  0  0  0  0  0  0  0  0  0
   -0.0118    1.6216   -3.0447 C   0  0  0  0  0  0  0  0  0  0  0  0
    0.3245    2.2876   -1.8488 C   0  0  0  0  0  0  0  0  0  0  0  0
    2.4248    2.8769   -2.7939 C   0  0  0  0  0  0  0  0  0  0  0  0
   -1.7730    1.4010   -1.6070 C   0  0  0  0  0  0  0  0  0  0  0  0
    0.4134    0.5392    0.8605 C   0  0  0  0  0  0  0  0  0  0  0  0
   -0.0522    2.1725    2.7119 C   0  0  0  0  0  0  0  0  0  0  0  0
    0.8392   -0.4518    1.9392 C   0  0  0  0  0  0  0  0  0  0  0  0
    0.4012    1.0883    3.6848 C   0  0  0  0  0  0  0  0  0  0  0  0
   -0.5899    1.5871    1.3885 C   0  0  0  0  0  0  0  0  0  0  0  0
   -0.7430    2.7160    0.3537 C   0  0  0  0  0  0  0  0  0  0  0  0
   -1.9754    0.9482    1.6039 C   0  0  0  0  0  0  0  0  0  0  0  0
   -2.9307    1.0493   -1.1453 N   0  0  0  0  0  0  0  0  0  0  0  0
   -1.2918    1.0857   -2.8860 N   0  0  0  0  0  0  0  0  0  0  0  0
   -0.7585    2.1581   -0.9523 N   0  0  0  0  0  0  0  0  0  0  0  0
    1.3648    0.2317    3.0752 O   0  0  0  0  0  0  0  0  0  0  0  0
   -2.9320    1.9849    1.6390 O   0  0  0  0  0  0  0  0  0  0  0  0
    4.1096    3.7293   -2.6591 Br  0  0  0  0  0  0  0  0  0  0  0  0
    0.5815    1.0580   -5.0381 H   0  0  0  0  0  0  0  0  0  0  0  0
    2.7761    2.1844   -4.8219 H   0  0  0  0  0  0  0  0  0  0  0  0
    1.8040    3.4339   -0.7906 H   0  0  0  0  0  0  0  0  0  0  0  0
    1.3136    1.0609    0.5087 H   0  0  0  0  0  0  0  0  0  0  0  0
   -0.0003   -0.0000    0.0002 H   0  0  0  0  0  0  0  0  0  0  0  0
   -0.8023    2.8135    3.1899 H   0  0  0  0  0  0  0  0  0  0  0  0
    0.8157    2.8074    2.4879 H   0  0  0  0  0  0  0  0  0  0  0  0
    0.0133   -1.1007    2.2503 H   0  0  0  0  0  0  0  0  0  0  0  0
    1.6303   -1.1007    1.5494 H   0  0  0  0  0  0  0  0  0  0  0  0
    0.8760    1.5522    4.5555 H   0  0  0  0  0  0  0  0  0  0  0  0
   -0.4391    0.4912    4.0552 H   0  0  0  0  0  0  0  0  0  0  0  0
   -1.6796    3.2170    0.5763 H   0  0  0  0  0  0  0  0  0  0  0  0
    0.1073    3.3772    0.4866 H   0  0  0  0  0  0  0  0  0  0  0  0
   -1.9774    0.4103    2.5460 H   0  0  0  0  0  0  0  0  0  0  0  0
   -2.1893    0.2744    0.7811 H   0  0  0  0  0  0  0  0  0  0  0  0
   -3.0313    1.4066   -0.1917 H   0  0  0  0  0  0  0  0  0  0  0  0
   -1.7759    0.5553   -3.5941 H   0  0  0  0  0  0  0  0  0  0  0  0
   -3.8032    1.5716    1.7753 H   0  0  0  0  0  0  0  0  0  0  0  0
  1  2  1  0  0  0  0
  1  4  2  0  0  0  0
  2  6  2  0  0  0  0
  3  5  2  0  0  0  0
  3  6  1  0  0  0  0
  4  5  1  0  0  0  0
  4 16  1  0  0  0  0
  5 17  1  0  0  0  0
  6 20  1  0  0  0  0
  7 15  2  0  0  0  0
  7 16  1  0  0  0  0
  7 17  1  0  0  0  0
  8 10  1  0  0  0  0
  8 12  1  0  0  0  0
  9 11  1  0  0  0  0
  9 12  1  0  0  0  0
 10 18  1  0  0  0  0
 11 18  1  0  0  0  0
 12 13  1  0  0  0  0
 12 14  1  0  0  0  0
 13 17  1  0  0  0  0
 14 19  1  0  0  0  0
  1 21  1  0  0  0  0
  2 22  1  0  0  0  0
  3 23  1  0  0  0  0
  8 24  1  0  0  0  0
  8 25  1  0  0  0  0
  9 26  1  0  0  0  0
  9 27  1  0  0  0  0
 10 28  1  0  0  0  0
 10 29  1  0  0  0  0
 11 30  1  0  0  0  0
 11 31  1  0  0  0  0
 13 32  1  0  0  0  0
 13 33  1  0  0  0  0
 14 34  1  0  0  0  0
 14 35  1  0  0  0  0
 15 36  1  0  0  0  0
 16 37  1  0  0  0  0
 19 38  1  0  0  0  0
M  END
$$$$
