
  -OEChem-07202109483D

 47 50  0     0  0  0  0  0  0999 V2000
    9.2608    1.0300    8.3974 C   0  0  0  0  0  0  0  0  0  0  0  0
    8.8809    1.7063    7.2359 C   0  0  0  0  0  0  0  0  0  0  0  0
    8.7216   -0.2239    8.7112 C   0  0  0  0  0  0  0  0  0  0  0  0
    7.9510    1.1567    6.3472 C   0  0  0  0  0  0  0  0  0  0  0  0
    6.3677   -2.2512   13.3007 C   0  0  0  0  0  0  0  0  0  0  0  0
    5.4804   -0.0973   13.4728 C   0  0  0  0  0  0  0  0  0  0  0  0
    4.2294   -3.3309   10.5924 C   0  0  0  0  0  0  0  0  0  0  0  0
    5.2762   -1.4216   13.1431 C   0  0  0  0  0  0  0  0  0  0  0  0
    3.8775   -2.1190   11.1652 C   0  0  0  0  0  0  0  0  0  0  0  0
    7.7858   -0.7910    7.8297 C   0  0  0  0  0  0  0  0  0  0  0  0
    7.4271   -0.0929    6.6800 C   0  0  0  0  0  0  0  0  0  0  0  0
    3.4711   -1.1111   10.3045 C   0  0  0  0  0  0  0  0  0  0  0  0
    6.3652   -2.0284    6.8245 C   0  0  0  0  0  0  0  0  0  0  0  0
    7.6429   -0.5178   14.0330 C   0  0  0  0  0  0  0  0  0  0  0  0
    3.7611   -2.4544    8.4989 C   0  0  0  0  0  0  0  0  0  0  0  0
    5.8437   -0.6277    4.8085 C   0  0  0  0  0  0  0  0  0  0  0  0
    9.8967   -1.0123   14.6087 C   0  0  0  0  0  0  0  0  0  0  0  0
    3.9392   -1.9321   12.6391 C   0  0  0  0  0  0  0  0  0  0  0  0
    5.4485   -3.1230    6.4449 C   0  0  0  0  0  0  0  0  0  0  0  0
    7.5705   -1.8312   13.7449 N   0  0  0  0  0  0  0  0  0  0  0  0
    6.6550    0.3908   13.9226 N   0  0  0  0  0  0  0  0  0  0  0  0
    7.1163   -1.9909    7.9023 N   0  0  0  0  0  0  0  0  0  0  0  0
    3.3997   -1.2415    8.9622 N   0  0  0  0  0  0  0  0  0  0  0  0
    6.5174   -0.9078    6.0563 N   0  0  0  0  0  0  0  0  0  0  0  0
    4.1646   -3.4777    9.2621 N   0  3  0  0  0  0  0  0  0  0  0  0
    3.1125    0.1094   10.8158 O   0  0  0  0  0  0  0  0  0  0  0  0
    8.8546   -0.0546   14.4903 O   0  0  0  0  0  0  0  0  0  0  0  0
    3.6961   -2.7227    6.7558 S   0  0  0  0  0  0  0  0  0  0  0  0
    9.9869    1.4823    9.0680 H   0  0  0  0  0  0  0  0  0  0  0  0
    9.3156    2.6789    7.0177 H   0  0  0  0  0  0  0  0  0  0  0  0
    9.0241   -0.7413    9.6158 H   0  0  0  0  0  0  0  0  0  0  0  0
    7.6573    1.6820    5.4453 H   0  0  0  0  0  0  0  0  0  0  0  0
    6.3104   -3.3098   13.0678 H   0  0  0  0  0  0  0  0  0  0  0  0
    4.6844    0.6356   13.3843 H   0  0  0  0  0  0  0  0  0  0  0  0
    4.5637   -4.1971   11.1463 H   0  0  0  0  0  0  0  0  0  0  0  0
    6.4583   -1.0254    3.9966 H   0  0  0  0  0  0  0  0  0  0  0  0
    4.8593   -1.1039    4.8113 H   0  0  0  0  0  0  0  0  0  0  0  0
    5.7183    0.4533    4.7002 H   0  0  0  0  0  0  0  0  0  0  0  0
   10.8013   -0.5237   14.9791 H   0  0  0  0  0  0  0  0  0  0  0  0
   10.0883   -1.4661   13.6331 H   0  0  0  0  0  0  0  0  0  0  0  0
    9.5888   -1.7872   15.3147 H   0  0  0  0  0  0  0  0  0  0  0  0
    3.7009   -2.8760   13.1636 H   0  0  0  0  0  0  0  0  0  0  0  0
    3.1458   -1.2410   12.9793 H   0  0  0  0  0  0  0  0  0  0  0  0
    5.5491   -3.3843    5.3759 H   0  0  0  0  0  0  0  0  0  0  0  0
    5.6816   -4.0528    6.9947 H   0  0  0  0  0  0  0  0  0  0  0  0
    4.4207   -4.3642    8.8310 H   0  0  0  0  0  0  0  0  0  0  0  0
    2.8552    0.7019   10.0960 H   0  0  0  0  0  0  0  0  0  0  0  0
  1  2  1  0  0  0  0
  1  3  2  0  0  0  0
  2  4  2  0  0  0  0
  3 10  1  0  0  0  0
  4 11  1  0  0  0  0
  5  8  1  0  0  0  0
  5 20  2  0  0  0  0
  6  8  2  0  0  0  0
  6 21  1  0  0  0  0
  7  9  1  0  0  0  0
  7 25  2  0  0  0  0
  8 18  1  0  0  0  0
  9 12  2  0  0  0  0
  9 18  1  0  0  0  0
 10 11  2  0  0  0  0
 10 22  1  0  0  0  0
 11 24  1  0  0  0  0
 12 23  1  0  0  0  0
 12 26  1  0  0  0  0
 13 19  1  0  0  0  0
 13 22  2  0  0  0  0
 13 24  1  0  0  0  0
 14 20  1  0  0  0  0
 14 21  2  0  0  0  0
 14 27  1  0  0  0  0
 15 23  2  0  0  0  0
 15 25  1  0  0  0  0
 15 28  1  0  0  0  0
 16 24  1  0  0  0  0
 17 27  1  0  0  0  0
 19 28  1  0  0  0  0
  1 29  1  0  0  0  0
  2 30  1  0  0  0  0
  3 31  1  0  0  0  0
  4 32  1  0  0  0  0
  5 33  1  0  0  0  0
  6 34  1  0  0  0  0
  7 35  1  0  0  0  0
 16 36  1  0  0  0  0
 16 37  1  0  0  0  0
 16 38  1  0  0  0  0
 17 39  1  0  0  0  0
 17 40  1  0  0  0  0
 17 41  1  0  0  0  0
 18 42  1  0  0  0  0
 18 43  1  0  0  0  0
 19 44  1  0  0  0  0
 19 45  1  0  0  0  0
 25 46  1  0  0  0  0
 26 47  1  0  0  0  0
M  CHG  1  25   1
M  END
$$$$
