
  -OEChem-07202109493D

 31 32  0     0  0  0  0  0  0999 V2000
    1.8851   -1.0363   -0.1124 C   0  0  0  0  0  0  0  0  0  0  0  0
    0.8066   -0.4630    0.5610 C   0  0  0  0  0  0  0  0  0  0  0  0
   -0.1706    2.2598    5.9414 C   0  0  0  0  0  0  0  0  0  0  0  0
    2.9210   -1.6309    0.6081 C   0  0  0  0  0  0  0  0  0  0  0  0
    0.7638   -0.4841    1.9551 C   0  0  0  0  0  0  0  0  0  0  0  0
   -0.9044    1.1076    5.6594 C   0  0  0  0  0  0  0  0  0  0  0  0
    1.1875    2.3158    5.6282 C   0  0  0  0  0  0  0  0  0  0  0  0
    2.8783   -1.6520    2.0022 C   0  0  0  0  0  0  0  0  0  0  0  0
    1.7997   -1.0786    2.6757 C   0  0  0  0  0  0  0  0  0  0  0  0
    1.0780    0.0674    4.7510 C   0  0  0  0  0  0  0  0  0  0  0  0
   -0.2801    0.0114    5.0642 C   0  0  0  0  0  0  0  0  0  0  0  0
    1.8118    1.2196    5.0330 C   0  0  0  0  0  0  0  0  0  0  0  0
    3.6098   -3.6671    3.2356 C   0  0  0  0  0  0  0  0  0  0  0  0
    4.0002   -2.2948    2.7503 C   0  0  0  0  0  0  0  0  0  0  0  0
    1.7368   -1.0896    4.1226 N   0  3  0  0  0  0  0  0  0  0  0  0
    2.4918   -4.1478    3.0997 O   0  0  0  0  0  0  0  0  0  0  0  0
    4.6227   -4.3083    3.8707 O   0  0  0  0  0  0  0  0  0  0  0  0
   -1.2280   -1.3940    4.7328 Cl  0  0  0  0  0  0  0  0  0  0  0  0
    3.4949    1.3342    4.6618 Cl  0  0  0  0  0  0  0  0  0  0  0  0
    1.9192   -1.0194   -1.1978 H   0  0  0  0  0  0  0  0  0  0  0  0
    0.0007    0.0006   -0.0002 H   0  0  0  0  0  0  0  0  0  0  0  0
   -0.6569    3.1135    6.4051 H   0  0  0  0  0  0  0  0  0  0  0  0
    3.7574   -2.0740    0.0741 H   0  0  0  0  0  0  0  0  0  0  0  0
   -0.0812   -0.0343    2.4699 H   0  0  0  0  0  0  0  0  0  0  0  0
   -1.9619    1.0806    5.9097 H   0  0  0  0  0  0  0  0  0  0  0  0
    1.7446    3.2214    5.8546 H   0  0  0  0  0  0  0  0  0  0  0  0
    4.3292   -1.6812    3.5970 H   0  0  0  0  0  0  0  0  0  0  0  0
    4.8866   -2.4032    2.1134 H   0  0  0  0  0  0  0  0  0  0  0  0
    1.2506   -1.9457    4.4432 H   0  0  0  0  0  0  0  0  0  0  0  0
    2.6935   -1.1614    4.5119 H   0  0  0  0  0  0  0  0  0  0  0  0
    4.4019   -5.1974    4.2216 H   0  0  0  0  0  0  0  0  0  0  0  0
  1  2  1  0  0  0  0
  1  4  2  0  0  0  0
  2  5  2  0  0  0  0
  3  6  1  0  0  0  0
  3  7  2  0  0  0  0
  4  8  1  0  0  0  0
  5  9  1  0  0  0  0
  6 11  2  0  0  0  0
  7 12  1  0  0  0  0
  8  9  2  0  0  0  0
  8 14  1  0  0  0  0
  9 15  1  0  0  0  0
 10 11  1  0  0  0  0
 10 12  2  0  0  0  0
 10 15  1  0  0  0  0
 11 18  1  0  0  0  0
 12 19  1  0  0  0  0
 13 14  1  0  0  0  0
 13 16  2  0  0  0  0
 13 17  1  0  0  0  0
  1 20  1  0  0  0  0
  2 21  1  0  0  0  0
  3 22  1  0  0  0  0
  4 23  1  0  0  0  0
  5 24  1  0  0  0  0
  6 25  1  0  0  0  0
  7 26  1  0  0  0  0
 14 27  1  0  0  0  0
 14 28  1  0  0  0  0
 15 29  1  0  0  0  0
 15 30  1  0  0  0  0
 17 31  1  0  0  0  0
M  CHG  1  15   1
M  END
$$$$
