
  -OEChem-07202109493D

 30 31  0     0  0  0  0  0  0999 V2000
    1.8851   -1.0363   -0.1124 C   0  0  0  0  0  0  0  0  0  0  0  0
    0.8066   -0.4630    0.5610 C   0  0  0  0  0  0  0  0  0  0  0  0
   -0.1946    2.2720    5.9131 C   0  0  0  0  0  0  0  0  0  0  0  0
    2.9210   -1.6309    0.6081 C   0  0  0  0  0  0  0  0  0  0  0  0
    0.7638   -0.4841    1.9551 C   0  0  0  0  0  0  0  0  0  0  0  0
   -0.9266    1.1193    5.6286 C   0  0  0  0  0  0  0  0  0  0  0  0
    1.1663    2.3260    5.6118 C   0  0  0  0  0  0  0  0  0  0  0  0
    2.8783   -1.6520    2.0022 C   0  0  0  0  0  0  0  0  0  0  0  0
    1.7997   -1.0786    2.6757 C   0  0  0  0  0  0  0  0  0  0  0  0
    1.0631    0.0744    4.7418 C   0  0  0  0  0  0  0  0  0  0  0  0
   -0.2978    0.0205    5.0430 C   0  0  0  0  0  0  0  0  0  0  0  0
    1.7952    1.2272    5.0262 C   0  0  0  0  0  0  0  0  0  0  0  0
    3.9772   -2.2812    2.7238 C   0  0  0  0  0  0  0  0  0  0  0  0
    4.0624   -3.5806    3.1264 C   0  0  0  0  0  0  0  0  0  0  0  0
    1.7263   -1.0847    4.1239 N   0  3  0  0  0  0  0  0  0  0  0  0
    5.0146   -4.1296    3.7527 O   0  5  0  0  0  0  0  0  0  0  0  0
    2.9192   -4.3110    2.7424 O   0  0  0  0  0  0  0  0  0  0  0  0
   -1.2436   -1.3855    4.7083 Cl  0  0  0  0  0  0  0  0  0  0  0  0
    3.4816    1.3393    4.6697 Cl  0  0  0  0  0  0  0  0  0  0  0  0
    1.9183   -1.0194   -1.1979 H   0  0  0  0  0  0  0  0  0  0  0  0
    0.0002   -0.0000   -0.0002 H   0  0  0  0  0  0  0  0  0  0  0  0
   -0.6844    3.1277    6.3693 H   0  0  0  0  0  0  0  0  0  0  0  0
    3.7543   -2.0732    0.0672 H   0  0  0  0  0  0  0  0  0  0  0  0
   -0.0814   -0.0341    2.4694 H   0  0  0  0  0  0  0  0  0  0  0  0
   -1.9864    1.0938    5.8696 H   0  0  0  0  0  0  0  0  0  0  0  0
    1.7220    3.2320    5.8399 H   0  0  0  0  0  0  0  0  0  0  0  0
    4.8024   -1.6057    2.9776 H   0  0  0  0  0  0  0  0  0  0  0  0
    1.2380   -1.9397    4.4421 H   0  0  0  0  0  0  0  0  0  0  0  0
    2.6804   -1.1551    4.5185 H   0  0  0  0  0  0  0  0  0  0  0  0
    3.0707   -5.2150    3.0698 H   0  0  0  0  0  0  0  0  0  0  0  0
  1  2  1  0  0  0  0
  1  4  2  0  0  0  0
  2  5  2  0  0  0  0
  3  6  1  0  0  0  0
  3  7  2  0  0  0  0
  4  8  1  0  0  0  0
  5  9  1  0  0  0  0
  6 11  2  0  0  0  0
  7 12  1  0  0  0  0
  8  9  2  0  0  0  0
  8 13  1  0  0  0  0
  9 15  1  0  0  0  0
 10 11  1  0  0  0  0
 10 12  2  0  0  0  0
 10 15  1  0  0  0  0
 11 18  1  0  0  0  0
 12 19  1  0  0  0  0
 13 14  2  0  0  0  0
 14 16  1  0  0  0  0
 14 17  1  0  0  0  0
  1 20  1  0  0  0  0
  2 21  1  0  0  0  0
  3 22  1  0  0  0  0
  4 23  1  0  0  0  0
  5 24  1  0  0  0  0
  6 25  1  0  0  0  0
  7 26  1  0  0  0  0
 13 27  1  0  0  0  0
 15 28  1  0  0  0  0
 15 29  1  0  0  0  0
 17 30  1  0  0  0  0
M  CHG  2  15   1  16  -1
M  END
$$$$
