
  -OEChem-07202109493D

 31 33  0     0  0  0  0  0  0999 V2000
    1.3309    2.6133    0.1261 C   0  0  0  0  0  0  0  0  0  0  0  0
   -5.9929   -1.2546   -1.8075 C   0  0  0  0  0  0  0  0  0  0  0  0
   -5.0315   -1.0269   -2.7921 C   0  0  0  0  0  0  0  0  0  0  0  0
    2.3460    1.7559    0.5475 C   0  0  0  0  0  0  0  0  0  0  0  0
    0.0753    2.1066   -0.2166 C   0  0  0  0  0  0  0  0  0  0  0  0
   -5.7878   -0.7842   -0.5104 C   0  0  0  0  0  0  0  0  0  0  0  0
   -3.8649   -0.3289   -2.4796 C   0  0  0  0  0  0  0  0  0  0  0  0
    2.1116    0.3841    0.6296 C   0  0  0  0  0  0  0  0  0  0  0  0
   -0.1647    0.7316   -0.1362 C   0  0  0  0  0  0  0  0  0  0  0  0
   -4.6213   -0.0863   -0.1979 C   0  0  0  0  0  0  0  0  0  0  0  0
   -3.6598    0.1414   -1.1825 C   0  0  0  0  0  0  0  0  0  0  0  0
    0.8588   -0.1356    0.2894 C   0  0  0  0  0  0  0  0  0  0  0  0
   -1.4848    0.1183   -0.4871 C   0  0  0  0  0  0  0  0  0  0  0  0
   -0.6449   -1.9561    0.0178 C   0  0  0  0  0  0  0  0  0  0  0  0
   -4.4234    0.4061    1.1985 C   0  0  0  0  0  0  0  0  0  0  0  0
   -1.6539   -1.2507   -0.3848 N   0  0  0  0  0  0  0  0  0  0  0  0
   -2.4790    0.8415   -0.8858 N   0  0  0  0  0  0  0  0  0  0  0  0
    0.5983   -1.5070    0.3633 N   0  0  0  0  0  0  0  0  0  0  0  0
   -0.8619   -3.6550    0.1413 Cl  0  0  0  0  0  0  0  0  0  0  0  0
    1.5175    3.6819    0.0626 H   0  0  0  0  0  0  0  0  0  0  0  0
   -6.9010   -1.7985   -2.0505 H   0  0  0  0  0  0  0  0  0  0  0  0
   -5.1906   -1.3943   -3.8017 H   0  0  0  0  0  0  0  0  0  0  0  0
    3.3198    2.1567    0.8128 H   0  0  0  0  0  0  0  0  0  0  0  0
   -0.6993    2.7944   -0.5434 H   0  0  0  0  0  0  0  0  0  0  0  0
   -6.5433   -0.9663    0.2493 H   0  0  0  0  0  0  0  0  0  0  0  0
   -3.1217   -0.1569   -3.2541 H   0  0  0  0  0  0  0  0  0  0  0  0
    2.9105   -0.2740    0.9613 H   0  0  0  0  0  0  0  0  0  0  0  0
   -3.9099   -0.3532    1.7995 H   0  0  0  0  0  0  0  0  0  0  0  0
   -3.8266    1.3263    1.2131 H   0  0  0  0  0  0  0  0  0  0  0  0
   -5.3830    0.6400    1.6756 H   0  0  0  0  0  0  0  0  0  0  0  0
    1.3313   -2.1355    0.6673 H   0  0  0  0  0  0  0  0  0  0  0  0
  1  4  1  0  0  0  0
  1  5  2  0  0  0  0
  2  3  1  0  0  0  0
  2  6  2  0  0  0  0
  3  7  2  0  0  0  0
  4  8  2  0  0  0  0
  5  9  1  0  0  0  0
  6 10  1  0  0  0  0
  7 11  1  0  0  0  0
  8 12  1  0  0  0  0
  9 12  2  0  0  0  0
  9 13  1  0  0  0  0
 10 11  2  0  0  0  0
 10 15  1  0  0  0  0
 11 17  1  0  0  0  0
 12 18  1  0  0  0  0
 13 16  1  0  0  0  0
 13 17  2  0  0  0  0
 14 16  2  0  0  0  0
 14 18  1  0  0  0  0
 14 19  1  0  0  0  0
  1 20  1  0  0  0  0
  2 21  1  0  0  0  0
  3 22  1  0  0  0  0
  4 23  1  0  0  0  0
  5 24  1  0  0  0  0
  6 25  1  0  0  0  0
  7 26  1  0  0  0  0
  8 27  1  0  0  0  0
 15 28  1  0  0  0  0
 15 29  1  0  0  0  0
 15 30  1  0  0  0  0
 18 31  1  0  0  0  0
M  END
$$$$
