
  -OEChem-07202109483D

 46 49  0     0  0  0  0  0  0999 V2000
    0.2607    3.1106    5.3722 C   0  0  0  0  0  0  0  0  0  0  0  0
   -0.8288    2.2772    5.6353 C   0  0  0  0  0  0  0  0  0  0  0  0
    1.5397    2.5807    5.1600 C   0  0  0  0  0  0  0  0  0  0  0  0
   -0.6816    0.8874    5.6960 C   0  0  0  0  0  0  0  0  0  0  0  0
    6.0998    3.8280    7.5849 C   0  0  0  0  0  0  0  0  0  0  0  0
    4.8111    4.0485    9.5206 C   0  0  0  0  0  0  0  0  0  0  0  0
    5.7228    3.3011    8.8033 C   0  0  0  0  0  0  0  0  0  0  0  0
    1.7058    1.1866    5.2175 C   0  0  0  0  0  0  0  0  0  0  0  0
    0.6010    0.3820    5.4816 C   0  0  0  0  0  0  0  0  0  0  0  0
    2.4383   -0.8190    5.2049 C   0  0  0  0  0  0  0  0  0  0  0  0
    4.7458    5.6285    7.8877 C   0  0  0  0  0  0  0  0  0  0  0  0
    6.1131    0.2336    7.5384 C   0  0  0  0  0  0  0  0  0  0  0  0
    5.6434    0.8113    8.6562 C   0  0  0  0  0  0  0  0  0  0  0  0
    4.4159    0.2263    9.2692 C   0  0  0  0  0  0  0  0  0  0  0  0
    4.5084   -1.3478    7.4390 C   0  0  0  0  0  0  0  0  0  0  0  0
    0.3382   -2.1046    5.6901 C   0  0  0  0  0  0  0  0  0  0  0  0
    4.7169    7.2531    6.1511 C   0  0  0  0  0  0  0  0  0  0  0  0
    6.2696    1.9958    9.3162 C   0  0  0  0  0  0  0  0  0  0  0  0
    3.2928   -2.0213    5.1208 C   0  0  0  0  0  0  0  0  0  0  0  0
    5.6294    4.9935    7.0943 N   0  0  0  0  0  0  0  0  0  0  0  0
    4.3000    5.2211    9.0914 N   0  0  0  0  0  0  0  0  0  0  0  0
    2.8380    0.4230    5.0483 N   0  0  0  0  0  0  0  0  0  0  0  0
    5.5726   -0.8521    6.8954 N   0  0  0  0  0  0  0  0  0  0  0  0
    1.0988   -0.8957    5.4676 N   0  0  0  0  0  0  0  0  0  0  0  0
    3.9138   -0.8633    8.5826 N   0  0  0  0  0  0  0  0  0  0  0  0
    3.9164    0.6885   10.2902 O   0  0  0  0  0  0  0  0  0  0  0  0
    4.2462    6.8216    7.4197 O   0  0  0  0  0  0  0  0  0  0  0  0
    3.6961   -2.7227    6.7558 S   0  0  0  0  0  0  0  0  0  0  0  0
    0.1145    4.1868    5.3299 H   0  0  0  0  0  0  0  0  0  0  0  0
   -1.8105    2.7162    5.7966 H   0  0  0  0  0  0  0  0  0  0  0  0
    2.3793    3.2370    4.9555 H   0  0  0  0  0  0  0  0  0  0  0  0
   -1.5281    0.2411    5.8995 H   0  0  0  0  0  0  0  0  0  0  0  0
    6.8111    3.3162    6.9444 H   0  0  0  0  0  0  0  0  0  0  0  0
    4.4515    3.7207   10.4910 H   0  0  0  0  0  0  0  0  0  0  0  0
    7.0045    0.6327    7.0636 H   0  0  0  0  0  0  0  0  0  0  0  0
   -0.0344   -2.4515    4.7227 H   0  0  0  0  0  0  0  0  0  0  0  0
    0.9827   -2.8617    6.1454 H   0  0  0  0  0  0  0  0  0  0  0  0
   -0.4937   -1.8888    6.3664 H   0  0  0  0  0  0  0  0  0  0  0  0
    4.2492    8.2064    5.8931 H   0  0  0  0  0  0  0  0  0  0  0  0
    4.4753    6.5004    5.3965 H   0  0  0  0  0  0  0  0  0  0  0  0
    5.8007    7.3830    6.1995 H   0  0  0  0  0  0  0  0  0  0  0  0
    7.3540    1.9662    9.1597 H   0  0  0  0  0  0  0  0  0  0  0  0
    6.1200    1.9239   10.3992 H   0  0  0  0  0  0  0  0  0  0  0  0
    2.8150   -2.8178    4.5220 H   0  0  0  0  0  0  0  0  0  0  0  0
    4.2461   -1.8030    4.6064 H   0  0  0  0  0  0  0  0  0  0  0  0
    3.0784   -1.3212    8.9341 H   0  0  0  0  0  0  0  0  0  0  0  0
  1  2  1  0  0  0  0
  1  3  2  0  0  0  0
  2  4  2  0  0  0  0
  3  8  1  0  0  0  0
  4  9  1  0  0  0  0
  5  7  1  0  0  0  0
  5 20  2  0  0  0  0
  6  7  2  0  0  0  0
  6 21  1  0  0  0  0
  7 18  1  0  0  0  0
  8  9  2  0  0  0  0
  8 22  1  0  0  0  0
  9 24  1  0  0  0  0
 10 19  1  0  0  0  0
 10 22  2  0  0  0  0
 10 24  1  0  0  0  0
 11 20  1  0  0  0  0
 11 21  2  0  0  0  0
 11 27  1  0  0  0  0
 12 13  2  0  0  0  0
 12 23  1  0  0  0  0
 13 14  1  0  0  0  0
 13 18  1  0  0  0  0
 14 25  1  0  0  0  0
 14 26  2  0  0  0  0
 15 23  2  0  0  0  0
 15 25  1  0  0  0  0
 15 28  1  0  0  0  0
 16 24  1  0  0  0  0
 17 27  1  0  0  0  0
 19 28  1  0  0  0  0
  1 29  1  0  0  0  0
  2 30  1  0  0  0  0
  3 31  1  0  0  0  0
  4 32  1  0  0  0  0
  5 33  1  0  0  0  0
  6 34  1  0  0  0  0
 12 35  1  0  0  0  0
 16 36  1  0  0  0  0
 16 37  1  0  0  0  0
 16 38  1  0  0  0  0
 17 39  1  0  0  0  0
 17 40  1  0  0  0  0
 17 41  1  0  0  0  0
 18 42  1  0  0  0  0
 18 43  1  0  0  0  0
 19 44  1  0  0  0  0
 19 45  1  0  0  0  0
 25 46  1  0  0  0  0
M  END
$$$$
