
  -OEChem-07202109493D

 42 44  0     1  0  0  0  0  0999 V2000
   -4.2089   -4.6125   -3.0440 C   0  0  0  0  0  0  0  0  0  0  0  0
   -4.5930   -3.5903   -0.5250 C   0  0  0  0  0  0  0  0  0  0  0  0
   -3.2954   -3.7878   -1.0079 C   0  0  0  0  0  0  0  0  0  0  0  0
   -3.0953   -4.3059   -2.2846 C   0  0  0  0  0  0  0  0  0  0  0  0
   -5.6439   -3.9332   -1.3737 C   0  0  0  0  0  0  0  0  0  0  0  0
   -7.0185   -3.7516   -0.9311 C   0  0  0  0  0  0  0  0  0  0  0  0
   -7.2793   -3.2599    0.2815 C   0  0  0  0  0  0  0  0  0  0  0  0
   -6.1895   -2.8811    1.2204 C   0  0  0  0  0  0  0  0  0  0  0  0
    0.6781   -3.1347   -0.0091 C   0  0  0  0  0  0  0  0  0  0  0  0
    0.2199   -0.6779    0.3643 C   0  0  0  0  0  0  0  0  0  0  0  0
    1.9645   -3.0183    0.8058 C   0  0  0  0  0  0  0  0  0  0  0  0
    1.5058   -0.5626    1.1801 C   0  0  0  0  0  0  0  0  0  0  0  0
   -0.3641   -2.0955    0.4249 C   0  0  1  0  0  0  0  0  0  0  0  0
    2.5421   -1.6029    0.7494 C   0  0  1  0  0  0  0  0  0  0  0  0
   -3.7699   -2.7074    1.6534 C   0  0  0  0  0  0  0  0  0  0  0  0
   -1.6202   -2.1988   -0.4384 C   0  0  0  0  0  0  0  0  0  0  0  0
   -5.4786   -4.4390   -2.6202 N   0  0  0  0  0  0  0  0  0  0  0  0
   -4.8771   -3.0637    0.7729 N   0  0  0  0  0  0  0  0  0  0  0  0
    3.7296   -1.5085    1.5634 N   0  0  0  0  0  0  0  0  0  0  0  0
   -6.5136   -2.4348    2.3217 O   0  0  0  0  0  0  0  0  0  0  0  0
   -2.1556   -3.5013   -0.2975 O   0  0  0  0  0  0  0  0  0  0  0  0
   -1.8637   -4.5056   -2.7702 F   0  0  0  0  0  0  0  0  0  0  0  0
   -4.1060   -5.0187   -4.0442 H   0  0  0  0  0  0  0  0  0  0  0  0
   -7.8225   -4.0233   -1.6062 H   0  0  0  0  0  0  0  0  0  0  0  0
   -8.3013   -3.1214    0.6173 H   0  0  0  0  0  0  0  0  0  0  0  0
    0.9133   -3.0068   -1.0736 H   0  0  0  0  0  0  0  0  0  0  0  0
    0.2681   -4.1454    0.1054 H   0  0  0  0  0  0  0  0  0  0  0  0
   -0.5132    0.0449    0.7419 H   0  0  0  0  0  0  0  0  0  0  0  0
    0.4283   -0.4036   -0.6779 H   0  0  0  0  0  0  0  0  0  0  0  0
    1.7527   -3.2994    1.8461 H   0  0  0  0  0  0  0  0  0  0  0  0
    2.6978   -3.7409    0.4266 H   0  0  0  0  0  0  0  0  0  0  0  0
    1.9152    0.4487    1.0656 H   0  0  0  0  0  0  0  0  0  0  0  0
    1.2644   -0.6869    2.2441 H   0  0  0  0  0  0  0  0  0  0  0  0
   -0.6509   -2.3068    1.4637 H   0  0  0  0  0  0  0  0  0  0  0  0
    2.8283   -1.3905   -0.2956 H   0  0  0  0  0  0  0  0  0  0  0  0
   -3.4905   -1.6569    1.4853 H   0  0  0  0  0  0  0  0  0  0  0  0
   -4.0769   -2.8419    2.7011 H   0  0  0  0  0  0  0  0  0  0  0  0
   -2.9073   -3.3551    1.4381 H   0  0  0  0  0  0  0  0  0  0  0  0
   -1.3665   -2.0231   -1.4831 H   0  0  0  0  0  0  0  0  0  0  0  0
   -2.3570   -1.4672   -0.1090 H   0  0  0  0  0  0  0  0  0  0  0  0
    3.5828   -0.8001    2.2418 H   0  0  0  0  0  0  0  0  0  0  0  0
    3.8754   -2.3880    1.9981 H   0  0  0  0  0  0  0  0  0  0  0  0
  1  4  1  0  0  0  0
  1 17  2  0  0  0  0
  2  3  1  0  0  0  0
  2  5  2  0  0  0  0
  2 18  1  0  0  0  0
  3  4  2  0  0  0  0
  3 21  1  0  0  0  0
  4 22  1  0  0  0  0
  5  6  1  0  0  0  0
  5 17  1  0  0  0  0
  6  7  2  0  0  0  0
  7  8  1  0  0  0  0
  8 18  1  0  0  0  0
  8 20  2  0  0  0  0
  9 11  1  0  0  0  0
  9 13  1  0  0  0  0
 10 12  1  0  0  0  0
 10 13  1  0  0  0  0
 11 14  1  0  0  0  0
 12 14  1  0  0  0  0
 13 16  1  0  0  0  0
 14 19  1  0  0  0  0
 15 18  1  0  0  0  0
 16 21  1  0  0  0  0
  1 23  1  0  0  0  0
  6 24  1  0  0  0  0
  7 25  1  0  0  0  0
  9 26  1  0  0  0  0
  9 27  1  0  0  0  0
 10 28  1  0  0  0  0
 10 29  1  0  0  0  0
 11 30  1  0  0  0  0
 11 31  1  0  0  0  0
 12 32  1  0  0  0  0
 12 33  1  0  0  0  0
 13 34  1  0  0  0  0
 14 35  1  0  0  0  0
 15 36  1  0  0  0  0
 15 37  1  0  0  0  0
 15 38  1  0  0  0  0
 16 39  1  0  0  0  0
 16 40  1  0  0  0  0
 19 41  1  0  0  0  0
 19 42  1  0  0  0  0
M  END
$$$$
