
  -OEChem-07202109493D

 39 40  0     0  0  0  0  0  0999 V2000
    0.7810   -4.0225   -1.7314 C   0  0  0  0  0  0  0  0  0  0  0  0
    0.1934   -3.9357    0.6103 C   0  0  0  0  0  0  0  0  0  0  0  0
    0.0544   -3.4475   -0.6889 C   0  0  0  0  0  0  0  0  0  0  0  0
    1.6466   -5.0858   -1.4748 C   0  0  0  0  0  0  0  0  0  0  0  0
    1.0590   -4.9990    0.8670 C   0  0  0  0  0  0  0  0  0  0  0  0
    1.7856   -5.5740   -0.1756 C   0  0  0  0  0  0  0  0  0  0  0  0
   -1.9348   -2.6488   -1.9666 C   0  0  0  0  0  0  0  0  0  0  0  0
   -1.9765   -2.2508   -3.2546 C   0  0  0  0  0  0  0  0  0  0  0  0
   -3.1005   -3.5105   -1.6240 C   0  0  0  0  0  0  0  0  0  0  0  0
   -3.9769   -3.3742   -3.7378 C   0  0  0  0  0  0  0  0  0  0  0  0
    2.1503   -5.0803   -3.7990 C   0  0  0  0  0  0  0  0  0  0  0  0
    0.4073   -4.8224    3.1473 C   0  0  0  0  0  0  0  0  0  0  0  0
   -1.2402   -0.0736   -3.5633 C   0  0  0  0  0  0  0  0  0  0  0  0
   -0.8788   -2.3006   -0.9654 C   0  0  0  0  0  0  0  0  0  0  0  0
   -2.8852   -2.5154   -4.2208 N   0  5  0  0  0  0  0  0  0  0  0  0
   -4.0332   -3.8315   -2.4633 N   0  0  0  0  0  0  0  0  0  0  0  0
   -3.1510   -3.9556   -0.3776 N   0  5  0  0  0  0  0  0  0  0  0  0
   -4.9024   -3.7100   -4.5140 N   0  3  0  0  0  0  0  0  0  0  0  0
    2.6317   -6.6133    0.0752 O   0  0  0  0  0  0  0  0  0  0  0  0
    2.3505   -5.6385   -2.5020 O   0  0  0  0  0  0  0  0  0  0  0  0
    1.1857   -5.4661    2.1405 O   0  0  0  0  0  0  0  0  0  0  0  0
   -0.9568   -1.4392   -3.7279 O   0  0  0  0  0  0  0  0  0  0  0  0
    0.6745   -3.6436   -2.7451 H   0  0  0  0  0  0  0  0  0  0  0  0
   -0.3719   -3.4891    1.4249 H   0  0  0  0  0  0  0  0  0  0  0  0
    2.7701   -5.6121   -4.5251 H   0  0  0  0  0  0  0  0  0  0  0  0
    2.4150   -4.0200   -3.7852 H   0  0  0  0  0  0  0  0  0  0  0  0
    1.0982   -5.1875   -4.0737 H   0  0  0  0  0  0  0  0  0  0  0  0
    0.6023   -5.2912    4.1150 H   0  0  0  0  0  0  0  0  0  0  0  0
   -0.6535   -4.9051    2.8975 H   0  0  0  0  0  0  0  0  0  0  0  0
    0.6877   -3.7674    3.1931 H   0  0  0  0  0  0  0  0  0  0  0  0
   -0.4092    0.5210   -3.9505 H   0  0  0  0  0  0  0  0  0  0  0  0
   -1.3938    0.1423   -2.5030 H   0  0  0  0  0  0  0  0  0  0  0  0
   -2.1493    0.1701   -4.1182 H   0  0  0  0  0  0  0  0  0  0  0  0
   -1.3582   -1.9830   -0.0333 H   0  0  0  0  0  0  0  0  0  0  0  0
   -0.3169   -1.4336   -1.3274 H   0  0  0  0  0  0  0  0  0  0  0  0
   -3.0793   -4.9760   -0.3917 H   0  0  0  0  0  0  0  0  0  0  0  0
   -4.9522   -3.4104   -5.5158 H   0  0  0  0  0  0  0  0  0  0  0  0
   -5.7042   -4.3185   -4.2263 H   0  0  0  0  0  0  0  0  0  0  0  0
    3.0603   -6.9006   -0.7457 H   0  0  0  0  0  0  0  0  0  0  0  0
  1  3  2  0  0  0  0
  1  4  1  0  0  0  0
  2  3  1  0  0  0  0
  2  5  2  0  0  0  0
  3 14  1  0  0  0  0
  4  6  2  0  0  0  0
  4 20  1  0  0  0  0
  5  6  1  0  0  0  0
  5 21  1  0  0  0  0
  6 19  1  0  0  0  0
  7  8  2  0  0  0  0
  7  9  1  0  0  0  0
  7 14  1  0  0  0  0
  8 15  1  0  0  0  0
  8 22  1  0  0  0  0
  9 16  2  0  0  0  0
  9 17  1  0  0  0  0
 10 15  1  0  0  0  0
 10 16  1  0  0  0  0
 10 18  2  0  0  0  0
 11 20  1  0  0  0  0
 12 21  1  0  0  0  0
 13 22  1  0  0  0  0
  1 23  1  0  0  0  0
  2 24  1  0  0  0  0
 11 25  1  0  0  0  0
 11 26  1  0  0  0  0
 11 27  1  0  0  0  0
 12 28  1  0  0  0  0
 12 29  1  0  0  0  0
 12 30  1  0  0  0  0
 13 31  1  0  0  0  0
 13 32  1  0  0  0  0
 13 33  1  0  0  0  0
 14 34  1  0  0  0  0
 14 35  1  0  0  0  0
 17 36  1  0  0  0  0
 18 37  1  0  0  0  0
 18 38  1  0  0  0  0
 19 39  1  0  0  0  0
M  CHG  3  15  -1  17  -1  18   1
M  END
$$$$
