
  -OEChem-07202109493D

 41 43  0     0  0  0  0  0  0999 V2000
   -3.1333   -4.9575   -1.6150 C   0  0  0  0  0  0  0  0  0  0  0  0
   -4.5257   -3.1987   -2.5122 C   0  0  0  0  0  0  0  0  0  0  0  0
   -2.0611   -4.0688   -1.5368 C   0  0  0  0  0  0  0  0  0  0  0  0
   -3.4535   -2.3099   -2.4339 C   0  0  0  0  0  0  0  0  0  0  0  0
   -4.3656   -4.5225   -2.1028 C   0  0  0  0  0  0  0  0  0  0  0  0
   -2.2212   -2.7450   -1.9462 C   0  0  0  0  0  0  0  0  0  0  0  0
   -1.7646   -1.1698    0.4653 C   0  0  0  0  0  0  0  0  0  0  0  0
   -0.8155   -1.3054   -0.4701 C   0  0  0  0  0  0  0  0  0  0  0  0
    0.5827   -0.9272   -0.0146 C   0  0  0  0  0  0  0  0  0  0  0  0
   -0.2150   -0.3940    2.1016 C   0  0  0  0  0  0  0  0  0  0  0  0
    1.6455   -0.2820   -2.1360 C   0  0  0  0  0  0  0  0  0  0  0  0
    2.7057   -1.9723   -0.6831 C   0  0  0  0  0  0  0  0  0  0  0  0
    3.0253    0.3261   -2.3458 C   0  0  0  0  0  0  0  0  0  0  0  0
    4.0406   -1.2930   -0.9564 C   0  0  0  0  0  0  0  0  0  0  0  0
   -5.5125   -5.4720   -2.1868 C   0  0  0  0  0  0  0  0  0  0  0  0
   -1.0633   -1.7855   -1.8597 C   0  0  0  0  0  0  0  0  0  0  0  0
    0.8337   -0.5003    1.2060 N   0  0  0  0  0  0  0  0  0  0  0  0
    0.0864    0.0313    3.2914 N   0  0  0  0  0  0  0  0  0  0  0  0
   -1.4961   -0.7270    1.7271 N   0  0  0  0  0  0  0  0  0  0  0  0
    1.6149   -1.0290   -0.8861 N   0  0  0  0  0  0  0  0  0  0  0  0
    4.0329   -0.6872   -2.2539 O   0  0  0  0  0  0  0  0  0  0  0  0
   -2.9993   -5.9873   -1.2944 H   0  0  0  0  0  0  0  0  0  0  0  0
   -5.4828   -2.8511   -2.8923 H   0  0  0  0  0  0  0  0  0  0  0  0
   -1.1051   -4.4160   -1.1540 H   0  0  0  0  0  0  0  0  0  0  0  0
   -3.5867   -1.2803   -2.7552 H   0  0  0  0  0  0  0  0  0  0  0  0
   -2.8082   -1.4000    0.2906 H   0  0  0  0  0  0  0  0  0  0  0  0
    0.8877    0.5108   -2.1584 H   0  0  0  0  0  0  0  0  0  0  0  0
    1.4162   -0.9811   -2.9507 H   0  0  0  0  0  0  0  0  0  0  0  0
    2.5609   -2.8079   -1.3802 H   0  0  0  0  0  0  0  0  0  0  0  0
    2.7059   -2.3865    0.3327 H   0  0  0  0  0  0  0  0  0  0  0  0
    3.0907    0.7697   -3.3443 H   0  0  0  0  0  0  0  0  0  0  0  0
    3.2329    1.1176   -1.6160 H   0  0  0  0  0  0  0  0  0  0  0  0
    4.2698   -0.5343   -0.1986 H   0  0  0  0  0  0  0  0  0  0  0  0
    4.8471   -2.0328   -0.9400 H   0  0  0  0  0  0  0  0  0  0  0  0
   -6.0916   -5.4550   -1.2553 H   0  0  0  0  0  0  0  0  0  0  0  0
   -6.1825   -5.2153   -3.0176 H   0  0  0  0  0  0  0  0  0  0  0  0
   -5.1673   -6.4992   -2.3631 H   0  0  0  0  0  0  0  0  0  0  0  0
   -0.1581   -2.2711   -2.2445 H   0  0  0  0  0  0  0  0  0  0  0  0
   -1.2409   -0.9234   -2.5136 H   0  0  0  0  0  0  0  0  0  0  0  0
   -0.7661    0.0657    3.8541 H   0  0  0  0  0  0  0  0  0  0  0  0
   -2.2716   -0.6526    2.3759 H   0  0  0  0  0  0  0  0  0  0  0  0
  1  3  2  0  0  0  0
  1  5  1  0  0  0  0
  2  4  1  0  0  0  0
  2  5  2  0  0  0  0
  3  6  1  0  0  0  0
  4  6  2  0  0  0  0
  5 15  1  0  0  0  0
  6 16  1  0  0  0  0
  7  8  2  0  0  0  0
  7 19  1  0  0  0  0
  8  9  1  0  0  0  0
  8 16  1  0  0  0  0
  9 17  2  0  0  0  0
  9 20  1  0  0  0  0
 10 17  1  0  0  0  0
 10 18  2  0  0  0  0
 10 19  1  0  0  0  0
 11 13  1  0  0  0  0
 11 20  1  0  0  0  0
 12 14  1  0  0  0  0
 12 20  1  0  0  0  0
 13 21  1  0  0  0  0
 14 21  1  0  0  0  0
  1 22  1  0  0  0  0
  2 23  1  0  0  0  0
  3 24  1  0  0  0  0
  4 25  1  0  0  0  0
  7 26  1  0  0  0  0
 11 27  1  0  0  0  0
 11 28  1  0  0  0  0
 12 29  1  0  0  0  0
 12 30  1  0  0  0  0
 13 31  1  0  0  0  0
 13 32  1  0  0  0  0
 14 33  1  0  0  0  0
 14 34  1  0  0  0  0
 15 35  1  0  0  0  0
 15 36  1  0  0  0  0
 15 37  1  0  0  0  0
 16 38  1  0  0  0  0
 16 39  1  0  0  0  0
 18 40  1  0  0  0  0
 19 41  1  0  0  0  0
M  END
$$$$
