
  -OEChem-07202109493D

 39 40  0     0  0  0  0  0  0999 V2000
    3.1178   -0.3144    1.4978 C   0  0  0  0  0  0  0  0  0  0  0  0
    2.9702   -0.0660    3.8964 C   0  0  0  0  0  0  0  0  0  0  0  0
    2.3529   -0.1109    2.6464 C   0  0  0  0  0  0  0  0  0  0  0  0
    4.4999   -0.4732    1.5993 C   0  0  0  0  0  0  0  0  0  0  0  0
    4.3523   -0.2248    3.9979 C   0  0  0  0  0  0  0  0  0  0  0  0
    5.1171   -0.4284    2.8494 C   0  0  0  0  0  0  0  0  0  0  0  0
    0.1093   -1.1658    2.9303 C   0  0  0  0  0  0  0  0  0  0  0  0
   -0.5699   -1.3489    4.0840 C   0  0  0  0  0  0  0  0  0  0  0  0
    0.0327   -2.3725    2.0438 C   0  0  0  0  0  0  0  0  0  0  0  0
   -1.3551   -3.4877    3.7657 C   0  0  0  0  0  0  0  0  0  0  0  0
    4.5268   -0.7039   -0.7675 C   0  0  0  0  0  0  0  0  0  0  0  0
    4.0889    0.0333    6.3474 C   0  0  0  0  0  0  0  0  0  0  0  0
   -1.6522    0.5784    4.7853 C   0  0  0  0  0  0  0  0  0  0  0  0
    0.8607    0.0609    2.5370 C   0  0  0  0  0  0  0  0  0  0  0  0
   -1.2836   -2.4068    4.5546 N   0  5  0  0  0  0  0  0  0  0  0  0
    0.6240   -2.3911    0.8873 N   0  0  0  0  0  0  0  0  0  0  0  0
   -2.0282   -4.5114    4.1899 N   0  0  0  0  0  0  0  0  0  0  0  0
   -0.7000   -3.4329    2.5482 N   0  0  0  0  0  0  0  0  0  0  0  0
    6.4680   -0.5835    2.9485 O   0  0  0  0  0  0  0  0  0  0  0  0
    5.2354   -0.6714    0.4698 O   0  0  0  0  0  0  0  0  0  0  0  0
    4.9427   -0.1786    5.2249 O   0  0  0  0  0  0  0  0  0  0  0  0
   -0.5766   -0.2985    4.9936 O   0  0  0  0  0  0  0  0  0  0  0  0
    2.6389   -0.3497    0.5222 H   0  0  0  0  0  0  0  0  0  0  0  0
    2.3762    0.0926    4.7933 H   0  0  0  0  0  0  0  0  0  0  0  0
    5.2306   -0.8685   -1.5871 H   0  0  0  0  0  0  0  0  0  0  0  0
    3.9987    0.2421   -0.9110 H   0  0  0  0  0  0  0  0  0  0  0  0
    3.8035   -1.5224   -0.7415 H   0  0  0  0  0  0  0  0  0  0  0  0
    4.6859    0.0486    7.2625 H   0  0  0  0  0  0  0  0  0  0  0  0
    3.3461   -0.7669    6.3975 H   0  0  0  0  0  0  0  0  0  0  0  0
    3.5801    0.9931    6.2308 H   0  0  0  0  0  0  0  0  0  0  0  0
   -1.6142    1.3843    5.5222 H   0  0  0  0  0  0  0  0  0  0  0  0
   -2.5933    0.0303    4.8771 H   0  0  0  0  0  0  0  0  0  0  0  0
   -1.5761    1.0021    3.7811 H   0  0  0  0  0  0  0  0  0  0  0  0
    0.5430    0.9003    3.1674 H   0  0  0  0  0  0  0  0  0  0  0  0
    0.5888    0.3375    1.5114 H   0  0  0  0  0  0  0  0  0  0  0  0
    0.4517   -3.2958    0.4443 H   0  0  0  0  0  0  0  0  0  0  0  0
   -1.9899   -5.2493    3.4828 H   0  0  0  0  0  0  0  0  0  0  0  0
   -0.7650   -4.2624    1.9635 H   0  0  0  0  0  0  0  0  0  0  0  0
    6.8546   -0.7152    2.0690 H   0  0  0  0  0  0  0  0  0  0  0  0
  1  3  2  0  0  0  0
  1  4  1  0  0  0  0
  2  3  1  0  0  0  0
  2  5  2  0  0  0  0
  3 14  1  0  0  0  0
  4  6  2  0  0  0  0
  4 20  1  0  0  0  0
  5  6  1  0  0  0  0
  5 21  1  0  0  0  0
  6 19  1  0  0  0  0
  7  8  2  0  0  0  0
  7  9  1  0  0  0  0
  7 14  1  0  0  0  0
  8 15  1  0  0  0  0
  8 22  1  0  0  0  0
  9 16  2  0  0  0  0
  9 18  1  0  0  0  0
 10 15  1  0  0  0  0
 10 17  2  0  0  0  0
 10 18  1  0  0  0  0
 11 20  1  0  0  0  0
 12 21  1  0  0  0  0
 13 22  1  0  0  0  0
  1 23  1  0  0  0  0
  2 24  1  0  0  0  0
 11 25  1  0  0  0  0
 11 26  1  0  0  0  0
 11 27  1  0  0  0  0
 12 28  1  0  0  0  0
 12 29  1  0  0  0  0
 12 30  1  0  0  0  0
 13 31  1  0  0  0  0
 13 32  1  0  0  0  0
 13 33  1  0  0  0  0
 14 34  1  0  0  0  0
 14 35  1  0  0  0  0
 16 36  1  0  0  0  0
 17 37  1  0  0  0  0
 18 38  1  0  0  0  0
 19 39  1  0  0  0  0
M  CHG  1  15  -1
M  END
$$$$
