
  -OEChem-07202109493D

 26 28  0     0  0  0  0  0  0999 V2000
    5.0768   -3.2788   -4.0304 C   0  0  0  0  0  0  0  0  0  0  0  0
    5.4514   -2.7092   -2.8136 C   0  0  0  0  0  0  0  0  0  0  0  0
    3.7344   -3.5596   -4.2852 C   0  0  0  0  0  0  0  0  0  0  0  0
    4.4838   -2.4204   -1.8514 C   0  0  0  0  0  0  0  0  0  0  0  0
    2.7667   -3.2709   -3.3230 C   0  0  0  0  0  0  0  0  0  0  0  0
    0.5284   -0.9424   -0.0724 C   0  0  0  0  0  0  0  0  0  0  0  0
    3.1414   -2.7012   -2.1061 C   0  0  0  0  0  0  0  0  0  0  0  0
    0.2997   -1.9826    0.7962 C   0  0  0  0  0  0  0  0  0  0  0  0
    1.4836   -1.1632   -1.0597 C   0  0  0  0  0  0  0  0  0  0  0  0
    2.1368   -2.4010   -1.1068 C   0  0  0  0  0  0  0  0  0  0  0  0
    0.9927   -3.1984    0.6901 C   0  0  0  0  0  0  0  0  0  0  0  0
   -0.6069   -2.1411    1.9480 C   0  0  0  0  0  0  0  0  0  0  0  0
    1.9167   -3.4348   -0.2521 N   0  0  0  0  0  0  0  0  0  0  0  0
   -1.4056   -1.2127    2.3444 N   0  0  0  0  0  0  0  0  0  0  0  0
    0.5393   -4.0563    1.7167 N   0  0  0  0  0  0  0  0  0  0  0  0
   -0.3988   -3.4162    2.4433 N   0  0  0  0  0  0  0  0  0  0  0  0
    1.8197    0.1023   -2.1836 Cl  0  0  0  0  0  0  0  0  0  0  0  0
    5.8302   -3.5020   -4.7801 H   0  0  0  0  0  0  0  0  0  0  0  0
    6.4964   -2.4890   -2.6158 H   0  0  0  0  0  0  0  0  0  0  0  0
    3.4418   -4.0019   -5.2330 H   0  0  0  0  0  0  0  0  0  0  0  0
    4.7917   -1.9762   -0.9077 H   0  0  0  0  0  0  0  0  0  0  0  0
    1.7241   -3.4947   -3.5359 H   0  0  0  0  0  0  0  0  0  0  0  0
   -0.0088   -0.0050    0.0131 H   0  0  0  0  0  0  0  0  0  0  0  0
   -1.9365   -1.5441    3.1571 H   0  0  0  0  0  0  0  0  0  0  0  0
    0.8627   -4.9955    1.8832 H   0  0  0  0  0  0  0  0  0  0  0  0
   -0.8650   -3.8415    3.2344 H   0  0  0  0  0  0  0  0  0  0  0  0
  1  2  1  0  0  0  0
  1  3  2  0  0  0  0
  2  4  2  0  0  0  0
  3  5  1  0  0  0  0
  4  7  1  0  0  0  0
  5  7  2  0  0  0  0
  6  8  1  0  0  0  0
  6  9  2  0  0  0  0
  7 10  1  0  0  0  0
  8 11  2  0  0  0  0
  8 12  1  0  0  0  0
  9 10  1  0  0  0  0
  9 17  1  0  0  0  0
 10 13  2  0  0  0  0
 11 13  1  0  0  0  0
 11 15  1  0  0  0  0
 12 14  2  0  0  0  0
 12 16  1  0  0  0  0
 15 16  1  0  0  0  0
  1 18  1  0  0  0  0
  2 19  1  0  0  0  0
  3 20  1  0  0  0  0
  4 21  1  0  0  0  0
  5 22  1  0  0  0  0
  6 23  1  0  0  0  0
 14 24  1  0  0  0  0
 15 25  1  0  0  0  0
 16 26  1  0  0  0  0
M  END
$$$$
