
  -OEChem-07202109493D

 41 42  0     0  0  0  0  0  0999 V2000
   -2.4455   -2.2163   -3.2045 C   0  0  0  0  0  0  0  0  0  0  0  0
   -3.5797   -1.5815   -1.1680 C   0  0  0  0  0  0  0  0  0  0  0  0
   -2.6342   -1.3138   -2.1579 C   0  0  0  0  0  0  0  0  0  0  0  0
   -3.2024   -3.3866   -3.2613 C   0  0  0  0  0  0  0  0  0  0  0  0
   -4.3366   -2.7518   -1.2247 C   0  0  0  0  0  0  0  0  0  0  0  0
   -4.1479   -3.6544   -2.2714 C   0  0  0  0  0  0  0  0  0  0  0  0
   -3.3309    1.9123   -1.5141 C   0  0  0  0  0  0  0  0  0  0  0  0
   -2.5801    1.1529   -2.5320 C   0  0  0  0  0  0  0  0  0  0  0  0
   -2.7202    1.7101   -3.7545 C   0  0  0  0  0  0  0  0  0  0  0  0
   -4.0723    3.4159   -3.0693 C   0  0  0  0  0  0  0  0  0  0  0  0
   -2.9534   -4.3169   -4.4102 C   0  0  0  0  0  0  0  0  0  0  0  0
   -5.3237   -1.8106    0.8932 C   0  0  0  0  0  0  0  0  0  0  0  0
   -5.0225   -4.2971    0.6430 C   0  0  0  0  0  0  0  0  0  0  0  0
   -6.8186   -3.1152   -0.6053 C   0  0  0  0  0  0  0  0  0  0  0  0
   -1.8166   -0.0495   -2.0966 C   0  0  0  0  0  0  0  0  0  0  0  0
   -5.3364   -2.9831   -0.1319 C   0  0  0  0  0  0  0  0  0  0  0  0
   -3.4372    2.8176   -4.0814 N   0  5  0  0  0  0  0  0  0  0  0  0
   -4.0290    2.9709   -1.7643 N   0  0  0  0  0  0  0  0  0  0  0  0
   -4.7709    4.4750   -3.3204 N   0  0  0  0  0  0  0  0  0  0  0  0
   -2.1090    1.1721   -4.8599 N   0  0  0  0  0  0  0  0  0  0  0  0
   -4.8449   -4.7322   -2.3235 O   0  5  0  0  0  0  0  0  0  0  0  0
   -1.7074   -2.0055   -3.9751 H   0  0  0  0  0  0  0  0  0  0  0  0
   -3.7249   -0.8762   -0.3529 H   0  0  0  0  0  0  0  0  0  0  0  0
   -3.2765    1.5318   -0.4814 H   0  0  0  0  0  0  0  0  0  0  0  0
   -2.1752   -5.0390   -4.1451 H   0  0  0  0  0  0  0  0  0  0  0  0
   -3.8654   -4.8609   -4.6772 H   0  0  0  0  0  0  0  0  0  0  0  0
   -2.6347   -3.7629   -5.2994 H   0  0  0  0  0  0  0  0  0  0  0  0
   -6.0471   -1.9552    1.7041 H   0  0  0  0  0  0  0  0  0  0  0  0
   -4.3395   -1.6931    1.3597 H   0  0  0  0  0  0  0  0  0  0  0  0
   -5.5663   -0.8648    0.3943 H   0  0  0  0  0  0  0  0  0  0  0  0
   -5.7475   -4.4760    1.4445 H   0  0  0  0  0  0  0  0  0  0  0  0
   -5.0386   -5.1805   -0.0062 H   0  0  0  0  0  0  0  0  0  0  0  0
   -4.0294   -4.2403    1.1043 H   0  0  0  0  0  0  0  0  0  0  0  0
   -7.5105   -3.2830    0.2288 H   0  0  0  0  0  0  0  0  0  0  0  0
   -7.1489   -2.2047   -1.1189 H   0  0  0  0  0  0  0  0  0  0  0  0
   -6.9361   -3.9587   -1.2956 H   0  0  0  0  0  0  0  0  0  0  0  0
   -1.4533    0.0988   -1.0717 H   0  0  0  0  0  0  0  0  0  0  0  0
   -0.9188   -0.1541   -2.7183 H   0  0  0  0  0  0  0  0  0  0  0  0
   -5.1914    4.8124   -2.4500 H   0  0  0  0  0  0  0  0  0  0  0  0
   -1.5564    0.3564   -4.7393 H   0  0  0  0  0  0  0  0  0  0  0  0
   -2.2444    1.6205   -5.7351 H   0  0  0  0  0  0  0  0  0  0  0  0
  1  3  2  0  0  0  0
  1  4  1  0  0  0  0
  2  3  1  0  0  0  0
  2  5  2  0  0  0  0
  3 15  1  0  0  0  0
  4  6  2  0  0  0  0
  4 11  1  0  0  0  0
  5  6  1  0  0  0  0
  5 16  1  0  0  0  0
  6 21  1  0  0  0  0
  7  8  1  0  0  0  0
  7 18  2  0  0  0  0
  8  9  2  0  0  0  0
  8 15  1  0  0  0  0
  9 17  1  0  0  0  0
  9 20  1  0  0  0  0
 10 17  1  0  0  0  0
 10 18  1  0  0  0  0
 10 19  2  0  0  0  0
 12 16  1  0  0  0  0
 13 16  1  0  0  0  0
 14 16  1  0  0  0  0
  1 22  1  0  0  0  0
  2 23  1  0  0  0  0
  7 24  1  0  0  0  0
 11 25  1  0  0  0  0
 11 26  1  0  0  0  0
 11 27  1  0  0  0  0
 12 28  1  0  0  0  0
 12 29  1  0  0  0  0
 12 30  1  0  0  0  0
 13 31  1  0  0  0  0
 13 32  1  0  0  0  0
 13 33  1  0  0  0  0
 14 34  1  0  0  0  0
 14 35  1  0  0  0  0
 14 36  1  0  0  0  0
 15 37  1  0  0  0  0
 15 38  1  0  0  0  0
 19 39  1  0  0  0  0
 20 40  1  0  0  0  0
 20 41  1  0  0  0  0
M  CHG  2  17  -1  21  -1
M  END
$$$$
