
  -OEChem-07202109493D

 47 50  0     0  0  0  0  0  0999 V2000
   -0.7592   -6.2287   -5.7019 C   0  0  0  0  0  0  0  0  0  0  0  0
   -1.3283   -5.1567   -6.4190 C   0  0  0  0  0  0  0  0  0  0  0  0
   -0.8527   -6.2965   -4.3096 C   0  0  0  0  0  0  0  0  0  0  0  0
   -2.0061   -4.1235   -5.7630 C   0  0  0  0  0  0  0  0  0  0  0  0
   -4.4620   -4.2098    5.7585 C   0  0  0  0  0  0  0  0  0  0  0  0
   -2.6705   -2.8597    6.4096 C   0  0  0  0  0  0  0  0  0  0  0  0
   -3.8770   -2.9600    5.7474 C   0  0  0  0  0  0  0  0  0  0  0  0
   -1.5208   -5.2756   -3.6721 C   0  0  0  0  0  0  0  0  0  0  0  0
   -2.0976   -4.1902   -4.3885 C   0  0  0  0  0  0  0  0  0  0  0  0
   -2.7416   -5.0597    6.9770 C   0  0  0  0  0  0  0  0  0  0  0  0
   -5.2207   -2.4206    2.7439 C   0  0  0  0  0  0  0  0  0  0  0  0
   -4.3477   -1.8294    3.5732 C   0  0  0  0  0  0  0  0  0  0  0  0
   -3.1435   -1.1784    2.9940 C   0  0  0  0  0  0  0  0  0  0  0  0
   -2.4911   -3.8914   -2.1832 C   0  0  0  0  0  0  0  0  0  0  0  0
   -3.9922   -1.8828    0.8246 C   0  0  0  0  0  0  0  0  0  0  0  0
   -2.9035   -3.3992   -1.0048 C   0  0  0  0  0  0  0  0  0  0  0  0
   -3.3921   -2.1270   -3.8569 C   0  0  0  0  0  0  0  0  0  0  0  0
   -2.8666   -7.3653    7.5465 C   0  0  0  0  0  0  0  0  0  0  0  0
   -4.5128   -1.7833    5.0572 C   0  0  0  0  0  0  0  0  0  0  0  0
   -3.9200   -5.2858    6.3658 N   0  0  0  0  0  0  0  0  0  0  0  0
   -2.0719   -3.8929    7.0377 N   0  0  0  0  0  0  0  0  0  0  0  0
   -1.7708   -5.0780   -2.3116 N   0  0  0  0  0  0  0  0  0  0  0  0
   -3.0691   -1.2713    1.5630 N   0  0  0  0  0  0  0  0  0  0  0  0
   -2.7000   -3.3265   -3.4562 N   0  0  0  0  0  0  0  0  0  0  0  0
   -5.0557   -2.4539    1.3786 N   0  3  0  0  0  0  0  0  0  0  0  0
   -2.2722   -0.6069    3.6279 O   0  0  0  0  0  0  0  0  0  0  0  0
   -2.1603   -6.1347    7.6084 O   0  0  0  0  0  0  0  0  0  0  0  0
   -3.7924   -1.9283   -0.8843 S   0  0  0  0  0  0  0  0  0  0  0  0
   -0.2389   -7.0146   -6.2437 H   0  0  0  0  0  0  0  0  0  0  0  0
   -1.2367   -5.1342   -7.5022 H   0  0  0  0  0  0  0  0  0  0  0  0
   -0.4143   -7.1220   -3.7611 H   0  0  0  0  0  0  0  0  0  0  0  0
   -2.4380   -3.3058   -6.3286 H   0  0  0  0  0  0  0  0  0  0  0  0
   -5.4113   -4.3930    5.2652 H   0  0  0  0  0  0  0  0  0  0  0  0
   -2.1302   -1.9194    6.4591 H   0  0  0  0  0  0  0  0  0  0  0  0
   -6.1147   -2.9092    3.1149 H   0  0  0  0  0  0  0  0  0  0  0  0
   -2.6755   -3.9373   -0.0947 H   0  0  0  0  0  0  0  0  0  0  0  0
   -4.4530   -2.3571   -4.0344 H   0  0  0  0  0  0  0  0  0  0  0  0
   -3.3089   -1.3725   -3.0608 H   0  0  0  0  0  0  0  0  0  0  0  0
   -2.9423   -1.7357   -4.7813 H   0  0  0  0  0  0  0  0  0  0  0  0
   -2.3057   -8.1355    8.0815 H   0  0  0  0  0  0  0  0  0  0  0  0
   -3.0014   -7.6570    6.5019 H   0  0  0  0  0  0  0  0  0  0  0  0
   -3.8448   -7.2378    8.0162 H   0  0  0  0  0  0  0  0  0  0  0  0
   -5.5806   -1.7481    5.3014 H   0  0  0  0  0  0  0  0  0  0  0  0
   -4.0864   -0.8480    5.4363 H   0  0  0  0  0  0  0  0  0  0  0  0
   -1.4955   -5.6694   -1.5469 H   0  0  0  0  0  0  0  0  0  0  0  0
   -2.2866   -0.8600    1.0631 H   0  0  0  0  0  0  0  0  0  0  0  0
   -5.7442   -2.9135    0.7931 H   0  0  0  0  0  0  0  0  0  0  0  0
  1  2  1  0  0  0  0
  1  3  2  0  0  0  0
  2  4  2  0  0  0  0
  3  8  1  0  0  0  0
  4  9  1  0  0  0  0
  5  7  1  0  0  0  0
  5 20  2  0  0  0  0
  6  7  2  0  0  0  0
  6 21  1  0  0  0  0
  7 19  1  0  0  0  0
  8  9  2  0  0  0  0
  8 22  1  0  0  0  0
  9 24  1  0  0  0  0
 10 20  1  0  0  0  0
 10 21  2  0  0  0  0
 10 27  1  0  0  0  0
 11 12  2  0  0  0  0
 11 25  1  0  0  0  0
 12 13  1  0  0  0  0
 12 19  1  0  0  0  0
 13 23  1  0  0  0  0
 13 26  2  0  0  0  0
 14 16  2  0  0  0  0
 14 22  1  0  0  0  0
 14 24  1  0  0  0  0
 15 23  1  0  0  0  0
 15 25  2  0  0  0  0
 15 28  1  0  0  0  0
 16 28  1  0  0  0  0
 17 24  1  0  0  0  0
 18 27  1  0  0  0  0
  1 29  1  0  0  0  0
  2 30  1  0  0  0  0
  3 31  1  0  0  0  0
  4 32  1  0  0  0  0
  5 33  1  0  0  0  0
  6 34  1  0  0  0  0
 11 35  1  0  0  0  0
 16 36  1  0  0  0  0
 17 37  1  0  0  0  0
 17 38  1  0  0  0  0
 17 39  1  0  0  0  0
 18 40  1  0  0  0  0
 18 41  1  0  0  0  0
 18 42  1  0  0  0  0
 19 43  1  0  0  0  0
 19 44  1  0  0  0  0
 22 45  1  0  0  0  0
 23 46  1  0  0  0  0
 25 47  1  0  0  0  0
M  CHG  1  25   1
M  END
$$$$
