
  -OEChem-07202109493D

 18 19  0     0  0  0  0  0  0999 V2000
   -0.7362    2.4983   -0.6009 C   0  0  0  0  0  0  0  0  0  0  0  0
   -1.4600    1.3111   -0.4547 C   0  0  0  0  0  0  0  0  0  0  0  0
    1.3453    1.3477   -0.0982 C   0  0  0  0  0  0  0  0  0  0  0  0
    0.6114    0.1807    0.0426 C   0  0  0  0  0  0  0  0  0  0  0  0
    0.6563    2.5164   -0.4240 C   0  0  0  0  0  0  0  0  0  0  0  0
   -0.7722    0.1525   -0.1312 C   0  0  0  0  0  0  0  0  0  0  0  0
    0.1535   -2.0764    0.4401 C   0  0  0  0  0  0  0  0  0  0  0  0
    0.4374   -3.3479    0.7335 C   0  0  0  0  0  0  0  0  0  0  0  0
    1.2078   -1.1120    0.3821 N   0  3  0  0  0  0  0  0  0  0  0  0
    1.2995    3.6161   -0.5628 O   0  5  0  0  0  0  0  0  0  0  0  0
   -1.4423   -1.4702    0.1103 S   0  0  0  0  0  0  0  0  0  0  0  0
   -1.2824    3.4059   -0.8560 H   0  0  0  0  0  0  0  0  0  0  0  0
   -2.5362    1.3092   -0.5939 H   0  0  0  0  0  0  0  0  0  0  0  0
    2.4230    1.3344    0.0447 H   0  0  0  0  0  0  0  0  0  0  0  0
   -0.3478   -4.0929    0.7821 H   0  0  0  0  0  0  0  0  0  0  0  0
    1.4577   -3.6563    0.9280 H   0  0  0  0  0  0  0  0  0  0  0  0
    1.9061   -1.3499   -0.3353 H   0  0  0  0  0  0  0  0  0  0  0  0
    1.6951   -1.0218    1.2843 H   0  0  0  0  0  0  0  0  0  0  0  0
  1  2  2  0  0  0  0
  1  5  1  0  0  0  0
  2  6  1  0  0  0  0
  3  4  1  0  0  0  0
  3  5  2  0  0  0  0
  4  6  2  0  0  0  0
  4  9  1  0  0  0  0
  5 10  1  0  0  0  0
  6 11  1  0  0  0  0
  7  8  2  0  0  0  0
  7  9  1  0  0  0  0
  7 11  1  0  0  0  0
  1 12  1  0  0  0  0
  2 13  1  0  0  0  0
  3 14  1  0  0  0  0
  8 15  1  0  0  0  0
  8 16  1  0  0  0  0
  9 17  1  0  0  0  0
  9 18  1  0  0  0  0
M  CHG  2   9   1  10  -1
M  END
$$$$
