
  -OEChem-07202109483D

 46 49  0     0  0  0  0  0  0999 V2000
   -0.5116    0.7877   10.9649 C   0  0  0  0  0  0  0  0  0  0  0  0
   -0.8899   -0.5100   11.3167 C   0  0  0  0  0  0  0  0  0  0  0  0
    0.2489    1.0305    9.8141 C   0  0  0  0  0  0  0  0  0  0  0  0
   -0.5236   -1.6101   10.5342 C   0  0  0  0  0  0  0  0  0  0  0  0
    4.4253    3.1975    9.8887 C   0  0  0  0  0  0  0  0  0  0  0  0
    6.0488    4.3086    8.6292 C   0  0  0  0  0  0  0  0  0  0  0  0
    5.6523    3.1466    9.2592 C   0  0  0  0  0  0  0  0  0  0  0  0
    0.6259   -0.0631    9.0164 C   0  0  0  0  0  0  0  0  0  0  0  0
    0.2337   -1.3446    9.3929 C   0  0  0  0  0  0  0  0  0  0  0  0
    1.4184   -1.3692    7.5246 C   0  0  0  0  0  0  0  0  0  0  0  0
    4.1354    5.3622    9.2586 C   0  0  0  0  0  0  0  0  0  0  0  0
    5.5564   -0.4133    9.3284 C   0  0  0  0  0  0  0  0  0  0  0  0
    5.8030    0.7267    8.6688 C   0  0  0  0  0  0  0  0  0  0  0  0
    5.3371    0.8079    7.2329 C   0  0  0  0  0  0  0  0  0  0  0  0
    4.5084   -1.3478    7.4390 C   0  0  0  0  0  0  0  0  0  0  0  0
    0.6208   -3.5977    8.3589 C   0  0  0  0  0  0  0  0  0  0  0  0
    2.1156    6.4166    9.9401 C   0  0  0  0  0  0  0  0  0  0  0  0
    6.5034    1.9047    9.2606 C   0  0  0  0  0  0  0  0  0  0  0  0
    2.1069   -1.9279    6.3429 C   0  0  0  0  0  0  0  0  0  0  0  0
    3.6378    4.2928    9.9083 N   0  0  0  0  0  0  0  0  0  0  0  0
    5.3125    5.4390    8.6088 N   0  0  0  0  0  0  0  0  0  0  0  0
    1.3607   -0.0982    7.8536 N   0  0  0  0  0  0  0  0  0  0  0  0
    4.6879   -0.2974    6.6941 N   0  0  0  0  0  0  0  0  0  0  0  0
    0.7544   -2.1597    8.4208 N   0  0  0  0  0  0  0  0  0  0  0  0
    4.9145   -1.4609    8.7405 N   0  0  0  0  0  0  0  0  0  0  0  0
    5.5426    1.8350    6.5905 O   0  0  0  0  0  0  0  0  0  0  0  0
    3.3581    6.4970    9.2566 O   0  0  0  0  0  0  0  0  0  0  0  0
    3.6961   -2.7227    6.7558 S   0  0  0  0  0  0  0  0  0  0  0  0
   -0.8126    1.6226   11.5923 H   0  0  0  0  0  0  0  0  0  0  0  0
   -1.4800   -0.6690   12.2160 H   0  0  0  0  0  0  0  0  0  0  0  0
    0.5370    2.0427    9.5493 H   0  0  0  0  0  0  0  0  0  0  0  0
   -0.8184   -2.6171   10.8076 H   0  0  0  0  0  0  0  0  0  0  0  0
    4.0240    2.3363   10.4135 H   0  0  0  0  0  0  0  0  0  0  0  0
    6.9974    4.3710    8.1051 H   0  0  0  0  0  0  0  0  0  0  0  0
    5.8441   -0.5844   10.3579 H   0  0  0  0  0  0  0  0  0  0  0  0
   -0.2831   -3.8282    7.7889 H   0  0  0  0  0  0  0  0  0  0  0  0
    1.5007   -4.0244    7.8694 H   0  0  0  0  0  0  0  0  0  0  0  0
    0.5464   -3.9978    9.3739 H   0  0  0  0  0  0  0  0  0  0  0  0
    1.5958    7.3749    9.8665 H   0  0  0  0  0  0  0  0  0  0  0  0
    2.2914    6.1649   10.9890 H   0  0  0  0  0  0  0  0  0  0  0  0
    1.5054    5.6372    9.4778 H   0  0  0  0  0  0  0  0  0  0  0  0
    7.4282    2.0944    8.7032 H   0  0  0  0  0  0  0  0  0  0  0  0
    6.8136    1.6620   10.2832 H   0  0  0  0  0  0  0  0  0  0  0  0
    1.4809   -2.6771    5.8251 H   0  0  0  0  0  0  0  0  0  0  0  0
    2.3099   -1.1469    5.5880 H   0  0  0  0  0  0  0  0  0  0  0  0
    4.7548   -2.2986    9.2875 H   0  0  0  0  0  0  0  0  0  0  0  0
  1  2  1  0  0  0  0
  1  3  2  0  0  0  0
  2  4  2  0  0  0  0
  3  8  1  0  0  0  0
  4  9  1  0  0  0  0
  5  7  1  0  0  0  0
  5 20  2  0  0  0  0
  6  7  2  0  0  0  0
  6 21  1  0  0  0  0
  7 18  1  0  0  0  0
  8  9  2  0  0  0  0
  8 22  1  0  0  0  0
  9 24  1  0  0  0  0
 10 19  1  0  0  0  0
 10 22  2  0  0  0  0
 10 24  1  0  0  0  0
 11 20  1  0  0  0  0
 11 21  2  0  0  0  0
 11 27  1  0  0  0  0
 12 13  2  0  0  0  0
 12 25  1  0  0  0  0
 13 14  1  0  0  0  0
 13 18  1  0  0  0  0
 14 23  1  0  0  0  0
 14 26  2  0  0  0  0
 15 23  2  0  0  0  0
 15 25  1  0  0  0  0
 15 28  1  0  0  0  0
 16 24  1  0  0  0  0
 17 27  1  0  0  0  0
 19 28  1  0  0  0  0
  1 29  1  0  0  0  0
  2 30  1  0  0  0  0
  3 31  1  0  0  0  0
  4 32  1  0  0  0  0
  5 33  1  0  0  0  0
  6 34  1  0  0  0  0
 12 35  1  0  0  0  0
 16 36  1  0  0  0  0
 16 37  1  0  0  0  0
 16 38  1  0  0  0  0
 17 39  1  0  0  0  0
 17 40  1  0  0  0  0
 17 41  1  0  0  0  0
 18 42  1  0  0  0  0
 18 43  1  0  0  0  0
 19 44  1  0  0  0  0
 19 45  1  0  0  0  0
 25 46  1  0  0  0  0
M  END
$$$$
