
  -OEChem-07202109493D

 40 42  0     0  0  0  0  0  0999 V2000
    0.6247   -0.8290    5.4044 C   0  0  0  0  0  0  0  0  0  0  0  0
    2.6033    0.5394    5.6270 C   0  0  0  0  0  0  0  0  0  0  0  0
    0.2701   -0.1289    4.2513 C   0  0  0  0  0  0  0  0  0  0  0  0
    2.2488    1.2396    4.4739 C   0  0  0  0  0  0  0  0  0  0  0  0
    1.7912   -0.4948    6.0923 C   0  0  0  0  0  0  0  0  0  0  0  0
    1.0822    0.9054    3.7860 C   0  0  0  0  0  0  0  0  0  0  0  0
    1.9814   -0.0037    1.1476 C   0  0  0  0  0  0  0  0  0  0  0  0
    0.9889    0.8930    1.2923 C   0  0  0  0  0  0  0  0  0  0  0  0
    0.1773    1.0602    0.0605 C   0  0  0  0  0  0  0  0  0  0  0  0
    1.5272   -0.5130   -0.9818 C   0  0  0  0  0  0  0  0  0  0  0  0
   -1.6282    2.0243   -1.2660 C   0  0  0  0  0  0  0  0  0  0  0  0
   -1.2538    2.7154    1.1383 C   0  0  0  0  0  0  0  0  0  0  0  0
   -3.0393    2.4504   -0.8914 C   0  0  0  0  0  0  0  0  0  0  0  0
   -1.9219    3.9729    0.6041 C   0  0  0  0  0  0  0  0  0  0  0  0
    2.1710   -1.2429    7.3252 C   0  0  0  0  0  0  0  0  0  0  0  0
    0.6997    1.6595    2.5404 C   0  0  0  0  0  0  0  0  0  0  0  0
    2.3195   -0.7420    0.0651 N   0  5  0  0  0  0  0  0  0  0  0  0
    0.5231    0.3090   -1.0386 N   0  0  0  0  0  0  0  0  0  0  0  0
    1.8368   -1.2241   -2.0576 N   0  5  0  0  0  0  0  0  0  0  0  0
   -0.8509    1.8924   -0.0185 N   0  3  0  0  0  0  0  0  0  0  0  0
   -3.0769    3.6951   -0.1902 O   0  0  0  0  0  0  0  0  0  0  0  0
   -0.0143   -1.6330    5.7600 H   0  0  0  0  0  0  0  0  0  0  0  0
    3.5146    0.8056    6.1562 H   0  0  0  0  0  0  0  0  0  0  0  0
   -0.6396   -0.3971    3.7209 H   0  0  0  0  0  0  0  0  0  0  0  0
    2.8870    2.0442    4.1183 H   0  0  0  0  0  0  0  0  0  0  0  0
    2.5913   -0.1430    2.0414 H   0  0  0  0  0  0  0  0  0  0  0  0
   -1.6313    1.0765   -1.8130 H   0  0  0  0  0  0  0  0  0  0  0  0
   -1.1298    2.7914   -1.8672 H   0  0  0  0  0  0  0  0  0  0  0  0
   -0.3373    2.9573    1.6862 H   0  0  0  0  0  0  0  0  0  0  0  0
   -1.9287    2.1512    1.7891 H   0  0  0  0  0  0  0  0  0  0  0  0
   -3.6465    2.5678   -1.8073 H   0  0  0  0  0  0  0  0  0  0  0  0
   -3.5503    1.6773   -0.2829 H   0  0  0  0  0  0  0  0  0  0  0  0
   -2.2070    4.6611    1.4251 H   0  0  0  0  0  0  0  0  0  0  0  0
   -1.2093    4.5319   -0.0293 H   0  0  0  0  0  0  0  0  0  0  0  0
    2.7974   -2.1066    7.0704 H   0  0  0  0  0  0  0  0  0  0  0  0
    2.7270   -0.6040    8.0237 H   0  0  0  0  0  0  0  0  0  0  0  0
    1.2836   -1.6030    7.8621 H   0  0  0  0  0  0  0  0  0  0  0  0
   -0.3679    1.9061    2.5753 H   0  0  0  0  0  0  0  0  0  0  0  0
    1.2283    2.6188    2.5037 H   0  0  0  0  0  0  0  0  0  0  0  0
    1.9817   -2.1958   -1.7744 H   0  0  0  0  0  0  0  0  0  0  0  0
  1  3  2  0  0  0  0
  1  5  1  0  0  0  0
  2  4  1  0  0  0  0
  2  5  2  0  0  0  0
  3  6  1  0  0  0  0
  4  6  2  0  0  0  0
  5 15  1  0  0  0  0
  6 16  1  0  0  0  0
  7  8  2  0  0  0  0
  7 17  1  0  0  0  0
  8  9  1  0  0  0  0
  8 16  1  0  0  0  0
  9 18  1  0  0  0  0
  9 20  2  0  0  0  0
 10 17  1  0  0  0  0
 10 18  2  0  0  0  0
 10 19  1  0  0  0  0
 11 13  1  0  0  0  0
 11 20  1  0  0  0  0
 12 14  1  0  0  0  0
 12 20  1  0  0  0  0
 13 21  1  0  0  0  0
 14 21  1  0  0  0  0
  1 22  1  0  0  0  0
  2 23  1  0  0  0  0
  3 24  1  0  0  0  0
  4 25  1  0  0  0  0
  7 26  1  0  0  0  0
 11 27  1  0  0  0  0
 11 28  1  0  0  0  0
 12 29  1  0  0  0  0
 12 30  1  0  0  0  0
 13 31  1  0  0  0  0
 13 32  1  0  0  0  0
 14 33  1  0  0  0  0
 14 34  1  0  0  0  0
 15 35  1  0  0  0  0
 15 36  1  0  0  0  0
 15 37  1  0  0  0  0
 16 38  1  0  0  0  0
 16 39  1  0  0  0  0
 19 40  1  0  0  0  0
M  CHG  3  17  -1  19  -1  20   1
M  END
$$$$
