
  -OEChem-07202109493D

 26 27  0     0  0  0  0  0  0999 V2000
    0.0753    2.1066   -0.2166 C   0  0  0  0  0  0  0  0  0  0  0  0
    2.1116    0.3841    0.6296 C   0  0  0  0  0  0  0  0  0  0  0  0
   -0.1647    0.7316   -0.1362 C   0  0  0  0  0  0  0  0  0  0  0  0
    0.8588   -0.1356    0.2894 C   0  0  0  0  0  0  0  0  0  0  0  0
    1.3309    2.6133    0.1261 C   0  0  0  0  0  0  0  0  0  0  0  0
    2.3460    1.7559    0.5475 C   0  0  0  0  0  0  0  0  0  0  0  0
   -1.4848    0.1183   -0.4871 C   0  0  0  0  0  0  0  0  0  0  0  0
   -0.6449   -1.9561    0.0178 C   0  0  0  0  0  0  0  0  0  0  0  0
    1.2728    4.7307    1.2074 C   0  0  0  0  0  0  0  0  0  0  0  0
    4.5385    2.3433   -0.1622 C   0  0  0  0  0  0  0  0  0  0  0  0
   -1.6539   -1.2507   -0.3848 N   0  0  0  0  0  0  0  0  0  0  0  0
   -2.4789    0.8414   -0.8861 N   0  0  0  0  0  0  0  0  0  0  0  0
    0.5983   -1.5070    0.3633 N   0  0  0  0  0  0  0  0  0  0  0  0
    1.5516    3.9560    0.0433 O   0  0  0  0  0  0  0  0  0  0  0  0
    3.5719    2.2471    0.8820 O   0  0  0  0  0  0  0  0  0  0  0  0
   -0.8619   -3.6550    0.1411 Cl  0  0  0  0  0  0  0  0  0  0  0  0
   -0.7047    2.7892   -0.5429 H   0  0  0  0  0  0  0  0  0  0  0  0
    2.9074   -0.2806    0.9579 H   0  0  0  0  0  0  0  0  0  0  0  0
    1.4911    5.7824    1.0069 H   0  0  0  0  0  0  0  0  0  0  0  0
    1.8844    4.3727    2.0395 H   0  0  0  0  0  0  0  0  0  0  0  0
    0.2158    4.6223    1.4617 H   0  0  0  0  0  0  0  0  0  0  0  0
    5.4703    2.7494    0.2390 H   0  0  0  0  0  0  0  0  0  0  0  0
    4.1570    2.9925   -0.9544 H   0  0  0  0  0  0  0  0  0  0  0  0
    4.7234    1.3461   -0.5685 H   0  0  0  0  0  0  0  0  0  0  0  0
   -3.2819    0.2340   -1.0729 H   0  0  0  0  0  0  0  0  0  0  0  0
    1.3308   -2.1356    0.6681 H   0  0  0  0  0  0  0  0  0  0  0  0
  1  3  2  0  0  0  0
  1  5  1  0  0  0  0
  2  4  2  0  0  0  0
  2  6  1  0  0  0  0
  3  4  1  0  0  0  0
  3  7  1  0  0  0  0
  4 13  1  0  0  0  0
  5  6  2  0  0  0  0
  5 14  1  0  0  0  0
  6 15  1  0  0  0  0
  7 11  1  0  0  0  0
  7 12  2  0  0  0  0
  8 11  2  0  0  0  0
  8 13  1  0  0  0  0
  8 16  1  0  0  0  0
  9 14  1  0  0  0  0
 10 15  1  0  0  0  0
  1 17  1  0  0  0  0
  2 18  1  0  0  0  0
  9 19  1  0  0  0  0
  9 20  1  0  0  0  0
  9 21  1  0  0  0  0
 10 22  1  0  0  0  0
 10 23  1  0  0  0  0
 10 24  1  0  0  0  0
 12 25  1  0  0  0  0
 13 26  1  0  0  0  0
M  END
$$$$
