
  -OEChem-07202109493D

 31 32  0     0  0  0  0  0  0999 V2000
    2.0155    0.1670    0.6665 C   0  0  0  0  0  0  0  0  0  0  0  0
    0.8008   -0.5058    0.5349 C   0  0  0  0  0  0  0  0  0  0  0  0
    7.2014   -5.3674    3.8368 C   0  0  0  0  0  0  0  0  0  0  0  0
    6.0346   -5.0946    3.0660 C   0  0  0  0  0  0  0  0  0  0  0  0
    1.6635   -2.3248    1.8706 C   0  0  0  0  0  0  0  0  0  0  0  0
    3.0543   -0.4061    1.4001 C   0  0  0  0  0  0  0  0  0  0  0  0
    2.8783   -1.6520    2.0022 C   0  0  0  0  0  0  0  0  0  0  0  0
    0.6248   -1.7517    1.1369 C   0  0  0  0  0  0  0  0  0  0  0  0
    7.9541   -4.2344    4.0548 C   0  0  0  0  0  0  0  0  0  0  0  0
    5.9397   -3.7633    2.7244 C   0  0  0  0  0  0  0  0  0  0  0  0
    9.1786   -4.0972    4.7741 C   0  0  0  0  0  0  0  0  0  0  0  0
    4.3456    0.3344    1.5251 C   0  0  0  0  0  0  0  0  0  0  0  0
    4.8691   -3.0783    1.9272 C   0  0  0  0  0  0  0  0  0  0  0  0
    3.9442   -2.2637    2.7687 N   0  3  0  0  0  0  0  0  0  0  0  0
    9.8266   -3.0400    4.9443 O   0  0  0  0  0  0  0  0  0  0  0  0
    9.6361   -5.2758    5.3073 O   0  0  0  0  0  0  0  0  0  0  0  0
    7.2539   -2.8490    3.3319 S   0  0  0  0  0  0  0  0  0  0  0  0
   -0.8751   -2.5801    0.9756 Cl  0  0  0  0  0  0  0  0  0  0  0  0
    2.1434    1.1364    0.1918 H   0  0  0  0  0  0  0  0  0  0  0  0
    0.0010   -0.0492   -0.0425 H   0  0  0  0  0  0  0  0  0  0  0  0
    7.4710   -6.3472    4.2102 H   0  0  0  0  0  0  0  0  0  0  0  0
    5.3039   -5.8402    2.7789 H   0  0  0  0  0  0  0  0  0  0  0  0
    1.5297   -3.2966    2.3409 H   0  0  0  0  0  0  0  0  0  0  0  0
    4.3270    0.9836    2.4080 H   0  0  0  0  0  0  0  0  0  0  0  0
    5.1917   -0.3575    1.6174 H   0  0  0  0  0  0  0  0  0  0  0  0
    4.5344    0.9535    0.6394 H   0  0  0  0  0  0  0  0  0  0  0  0
    5.3017   -2.3977    1.1860 H   0  0  0  0  0  0  0  0  0  0  0  0
    4.2490   -3.8049    1.3912 H   0  0  0  0  0  0  0  0  0  0  0  0
    3.5374   -2.8564    3.5131 H   0  0  0  0  0  0  0  0  0  0  0  0
    4.4795   -1.5288    3.2625 H   0  0  0  0  0  0  0  0  0  0  0  0
   10.4774   -5.1918    5.8047 H   0  0  0  0  0  0  0  0  0  0  0  0
  1  2  2  0  0  0  0
  1  6  1  0  0  0  0
  2  8  1  0  0  0  0
  3  4  1  0  0  0  0
  3  9  2  0  0  0  0
  4 10  2  0  0  0  0
  5  7  1  0  0  0  0
  5  8  2  0  0  0  0
  6  7  2  0  0  0  0
  6 12  1  0  0  0  0
  7 14  1  0  0  0  0
  8 18  1  0  0  0  0
  9 11  1  0  0  0  0
  9 17  1  0  0  0  0
 10 13  1  0  0  0  0
 10 17  1  0  0  0  0
 11 15  2  0  0  0  0
 11 16  1  0  0  0  0
 13 14  1  0  0  0  0
  1 19  1  0  0  0  0
  2 20  1  0  0  0  0
  3 21  1  0  0  0  0
  4 22  1  0  0  0  0
  5 23  1  0  0  0  0
 12 24  1  0  0  0  0
 12 25  1  0  0  0  0
 12 26  1  0  0  0  0
 13 27  1  0  0  0  0
 13 28  1  0  0  0  0
 14 29  1  0  0  0  0
 14 30  1  0  0  0  0
 16 31  1  0  0  0  0
M  CHG  1  14   1
M  END
$$$$
