
  -OEChem-07202109493D

 48 51  0     0  0  0  0  0  0999 V2000
   -6.4209   -2.8308   -4.6737 C   0  0  0  0  0  0  0  0  0  0  0  0
   -6.9279   -3.6467   -3.6435 C   0  0  0  0  0  0  0  0  0  0  0  0
   -5.0820   -2.4188   -4.6793 C   0  0  0  0  0  0  0  0  0  0  0  0
   -6.1074   -4.0680   -2.5978 C   0  0  0  0  0  0  0  0  0  0  0  0
    5.5187   -2.7933   -1.2504 C   0  0  0  0  0  0  0  0  0  0  0  0
    5.3950   -0.9647    0.1977 C   0  0  0  0  0  0  0  0  0  0  0  0
    5.1451   -2.3051   -0.0149 C   0  0  0  0  0  0  0  0  0  0  0  0
   -4.2681   -2.8349   -3.6448 C   0  0  0  0  0  0  0  0  0  0  0  0
   -4.7949   -3.6461   -2.6319 C   0  0  0  0  0  0  0  0  0  0  0  0
    6.2837   -0.7485   -1.8832 C   0  0  0  0  0  0  0  0  0  0  0  0
    2.6323   -4.4964    0.0275 C   0  0  0  0  0  0  0  0  0  0  0  0
    3.0648   -3.4519    0.7494 C   0  0  0  0  0  0  0  0  0  0  0  0
    2.0620   -2.5068    1.3067 C   0  0  0  0  0  0  0  0  0  0  0  0
   -2.5935   -3.2502   -2.2001 C   0  0  0  0  0  0  0  0  0  0  0  0
    0.3762   -3.9146    0.2583 C   0  0  0  0  0  0  0  0  0  0  0  0
   -1.4405   -3.3278   -1.5268 C   0  0  0  0  0  0  0  0  0  0  0  0
   -2.1026   -1.7829   -4.2432 C   0  0  0  0  0  0  0  0  0  0  0  0
    7.2064   -0.5775   -4.0685 C   0  0  0  0  0  0  0  0  0  0  0  0
    4.5058   -3.1773    1.0319 C   0  0  0  0  0  0  0  0  0  0  0  0
    6.0925   -2.0404   -2.2117 N   0  0  0  0  0  0  0  0  0  0  0  0
    5.9651   -0.1539   -0.7177 N   0  0  0  0  0  0  0  0  0  0  0  0
    0.7049   -2.8499    0.9860 N   0  0  0  0  0  0  0  0  0  0  0  0
   -2.9241   -2.5957   -3.3788 N   0  0  0  0  0  0  0  0  0  0  0  0
    1.3013   -4.7370   -0.2232 N   0  3  0  0  0  0  0  0  0  0  0  0
   -3.7430   -3.9508   -1.6568 N   0  3  0  0  0  0  0  0  0  0  0  0
    2.3137   -1.5200    1.9779 O   0  0  0  0  0  0  0  0  0  0  0  0
    6.8684    0.0489   -2.8394 O   0  0  0  0  0  0  0  0  0  0  0  0
   -1.2869   -4.2218   -0.0593 S   0  0  0  0  0  0  0  0  0  0  0  0
   -7.0815   -2.5160   -5.4777 H   0  0  0  0  0  0  0  0  0  0  0  0
   -7.9713   -3.9500   -3.6664 H   0  0  0  0  0  0  0  0  0  0  0  0
   -4.7102   -1.7906   -5.4814 H   0  0  0  0  0  0  0  0  0  0  0  0
   -6.4890   -4.6950   -1.8011 H   0  0  0  0  0  0  0  0  0  0  0  0
    5.3640   -3.8342   -1.5163 H   0  0  0  0  0  0  0  0  0  0  0  0
    5.1387   -0.4849    1.1372 H   0  0  0  0  0  0  0  0  0  0  0  0
    3.3221   -5.2151   -0.4009 H   0  0  0  0  0  0  0  0  0  0  0  0
   -0.5630   -2.8163   -1.9053 H   0  0  0  0  0  0  0  0  0  0  0  0
   -2.1517   -0.7337   -3.9163 H   0  0  0  0  0  0  0  0  0  0  0  0
   -1.0610   -2.1335   -4.1950 H   0  0  0  0  0  0  0  0  0  0  0  0
   -2.4686   -1.8621   -5.2775 H   0  0  0  0  0  0  0  0  0  0  0  0
    7.6602    0.1560   -4.7394 H   0  0  0  0  0  0  0  0  0  0  0  0
    6.3059   -0.9964   -4.5247 H   0  0  0  0  0  0  0  0  0  0  0  0
    7.9210   -1.3806   -3.8734 H   0  0  0  0  0  0  0  0  0  0  0  0
    5.0485   -4.1270    1.0990 H   0  0  0  0  0  0  0  0  0  0  0  0
    4.5948   -2.7094    2.0185 H   0  0  0  0  0  0  0  0  0  0  0  0
   -0.0614   -2.2713    1.3168 H   0  0  0  0  0  0  0  0  0  0  0  0
    1.0239   -5.5411   -0.7750 H   0  0  0  0  0  0  0  0  0  0  0  0
   -4.0197   -3.5990   -0.7310 H   0  0  0  0  0  0  0  0  0  0  0  0
   -3.6009   -4.9682   -1.6105 H   0  0  0  0  0  0  0  0  0  0  0  0
  1  2  1  0  0  0  0
  1  3  2  0  0  0  0
  2  4  2  0  0  0  0
  3  8  1  0  0  0  0
  4  9  1  0  0  0  0
  5  7  1  0  0  0  0
  5 20  2  0  0  0  0
  6  7  2  0  0  0  0
  6 21  1  0  0  0  0
  7 19  1  0  0  0  0
  8  9  2  0  0  0  0
  8 23  1  0  0  0  0
  9 25  1  0  0  0  0
 10 20  1  0  0  0  0
 10 21  2  0  0  0  0
 10 27  1  0  0  0  0
 11 12  2  0  0  0  0
 11 24  1  0  0  0  0
 12 13  1  0  0  0  0
 12 19  1  0  0  0  0
 13 22  1  0  0  0  0
 13 26  2  0  0  0  0
 14 16  2  0  0  0  0
 14 23  1  0  0  0  0
 14 25  1  0  0  0  0
 15 22  1  0  0  0  0
 15 24  2  0  0  0  0
 15 28  1  0  0  0  0
 16 28  1  0  0  0  0
 17 23  1  0  0  0  0
 18 27  1  0  0  0  0
  1 29  1  0  0  0  0
  2 30  1  0  0  0  0
  3 31  1  0  0  0  0
  4 32  1  0  0  0  0
  5 33  1  0  0  0  0
  6 34  1  0  0  0  0
 11 35  1  0  0  0  0
 16 36  1  0  0  0  0
 17 37  1  0  0  0  0
 17 38  1  0  0  0  0
 17 39  1  0  0  0  0
 18 40  1  0  0  0  0
 18 41  1  0  0  0  0
 18 42  1  0  0  0  0
 19 43  1  0  0  0  0
 19 44  1  0  0  0  0
 22 45  1  0  0  0  0
 24 46  1  0  0  0  0
 25 47  1  0  0  0  0
 25 48  1  0  0  0  0
M  CHG  2  24   1  25   1
M  END
$$$$
