
  -OEChem-07202109493D

 42 43  0     0  0  0  0  0  0999 V2000
    0.0549   -1.5799    3.4716 C   0  0  0  0  0  0  0  0  0  0  0  0
   -1.7042   -0.5400    4.7603 C   0  0  0  0  0  0  0  0  0  0  0  0
   -1.0774   -0.7679    3.5352 C   0  0  0  0  0  0  0  0  0  0  0  0
    0.5604   -2.1641    4.6330 C   0  0  0  0  0  0  0  0  0  0  0  0
   -1.1987   -1.1242    5.9218 C   0  0  0  0  0  0  0  0  0  0  0  0
   -0.0664   -1.9362    5.8581 C   0  0  0  0  0  0  0  0  0  0  0  0
   -4.1034   -0.5425    2.1007 C   0  0  0  0  0  0  0  0  0  0  0  0
   -2.8352   -0.8330    1.7652 C   0  0  0  0  0  0  0  0  0  0  0  0
   -2.7119   -1.9677    0.7828 C   0  0  0  0  0  0  0  0  0  0  0  0
   -5.1790   -2.2409    0.7164 C   0  0  0  0  0  0  0  0  0  0  0  0
    1.7797   -3.0261    4.4999 C   0  0  0  0  0  0  0  0  0  0  0  0
   -3.1393    0.0928    6.9700 C   0  0  0  0  0  0  0  0  0  0  0  0
   -0.9733   -0.1418    8.2306 C   0  0  0  0  0  0  0  0  0  0  0  0
   -2.4801   -2.0983    7.9428 C   0  0  0  0  0  0  0  0  0  0  0  0
   -1.6235   -0.1368    2.2807 C   0  0  0  0  0  0  0  0  0  0  0  0
   -1.9161   -0.8416    7.2074 C   0  0  0  0  0  0  0  0  0  0  0  0
   -1.5300   -2.3401    0.3827 N   0  0  0  0  0  0  0  0  0  0  0  0
   -6.2416   -2.8456    0.2701 N   0  0  0  0  0  0  0  0  0  0  0  0
   -5.2199   -1.1906    1.6206 N   0  0  0  0  0  0  0  0  0  0  0  0
   -3.8828   -2.5757    0.3406 N   0  0  0  0  0  0  0  0  0  0  0  0
    0.3992   -2.4741    6.9277 O   0  5  0  0  0  0  0  0  0  0  0  0
    0.5421   -1.7558    2.5152 H   0  0  0  0  0  0  0  0  0  0  0  0
   -2.5869    0.0937    4.8074 H   0  0  0  0  0  0  0  0  0  0  0  0
   -4.3485    0.2503    2.7979 H   0  0  0  0  0  0  0  0  0  0  0  0
    2.6821   -2.4190    4.6201 H   0  0  0  0  0  0  0  0  0  0  0  0
    1.7825   -3.8183    5.2558 H   0  0  0  0  0  0  0  0  0  0  0  0
    1.8085   -3.5135    3.5198 H   0  0  0  0  0  0  0  0  0  0  0  0
   -3.6824    0.3155    7.8959 H   0  0  0  0  0  0  0  0  0  0  0  0
   -2.8360    1.0529    6.5382 H   0  0  0  0  0  0  0  0  0  0  0  0
   -3.8458   -0.3730    6.2726 H   0  0  0  0  0  0  0  0  0  0  0  0
   -1.4878    0.0694    9.1744 H   0  0  0  0  0  0  0  0  0  0  0  0
   -0.0943   -0.7500    8.4744 H   0  0  0  0  0  0  0  0  0  0  0  0
   -0.6166    0.8141    7.8293 H   0  0  0  0  0  0  0  0  0  0  0  0
   -2.9952   -1.8405    8.8761 H   0  0  0  0  0  0  0  0  0  0  0  0
   -3.2029   -2.6300    7.3129 H   0  0  0  0  0  0  0  0  0  0  0  0
   -1.6747   -2.7955    8.2018 H   0  0  0  0  0  0  0  0  0  0  0  0
   -1.8624    0.9160    2.4778 H   0  0  0  0  0  0  0  0  0  0  0  0
   -0.8519   -0.1259    1.5010 H   0  0  0  0  0  0  0  0  0  0  0  0
   -1.6375   -3.1141   -0.2743 H   0  0  0  0  0  0  0  0  0  0  0  0
   -5.9515   -3.5787   -0.3789 H   0  0  0  0  0  0  0  0  0  0  0  0
   -6.1141   -0.8582    1.9668 H   0  0  0  0  0  0  0  0  0  0  0  0
   -3.7810   -3.3399   -0.3224 H   0  0  0  0  0  0  0  0  0  0  0  0
  1  3  2  0  0  0  0
  1  4  1  0  0  0  0
  2  3  1  0  0  0  0
  2  5  2  0  0  0  0
  3 15  1  0  0  0  0
  4  6  2  0  0  0  0
  4 11  1  0  0  0  0
  5  6  1  0  0  0  0
  5 16  1  0  0  0  0
  6 21  1  0  0  0  0
  7  8  2  0  0  0  0
  7 19  1  0  0  0  0
  8  9  1  0  0  0  0
  8 15  1  0  0  0  0
  9 17  2  0  0  0  0
  9 20  1  0  0  0  0
 10 18  2  0  0  0  0
 10 19  1  0  0  0  0
 10 20  1  0  0  0  0
 12 16  1  0  0  0  0
 13 16  1  0  0  0  0
 14 16  1  0  0  0  0
  1 22  1  0  0  0  0
  2 23  1  0  0  0  0
  7 24  1  0  0  0  0
 11 25  1  0  0  0  0
 11 26  1  0  0  0  0
 11 27  1  0  0  0  0
 12 28  1  0  0  0  0
 12 29  1  0  0  0  0
 12 30  1  0  0  0  0
 13 31  1  0  0  0  0
 13 32  1  0  0  0  0
 13 33  1  0  0  0  0
 14 34  1  0  0  0  0
 14 35  1  0  0  0  0
 14 36  1  0  0  0  0
 15 37  1  0  0  0  0
 15 38  1  0  0  0  0
 17 39  1  0  0  0  0
 18 40  1  0  0  0  0
 19 41  1  0  0  0  0
 20 42  1  0  0  0  0
M  CHG  1  21  -1
M  END
$$$$
