
  -OEChem-07202109483D

 47 50  0     0  0  0  0  0  0999 V2000
   -5.5188    5.1363    4.8960 C   0  0  0  0  0  0  0  0  0  0  0  0
   -5.8047    5.2450    6.2737 C   0  0  0  0  0  0  0  0  0  0  0  0
   -4.9017    3.9989    4.3558 C   0  0  0  0  0  0  0  0  0  0  0  0
   -5.4875    4.2217    7.1784 C   0  0  0  0  0  0  0  0  0  0  0  0
   -8.9087    3.0292    8.9375 C   0  0  0  0  0  0  0  0  0  0  0  0
  -10.1988    2.9802    6.9908 C   0  0  0  0  0  0  0  0  0  0  0  0
   -9.5522    2.2699    7.9816 C   0  0  0  0  0  0  0  0  0  0  0  0
   -4.5935    2.9935    5.2646 C   0  0  0  0  0  0  0  0  0  0  0  0
   -4.8765    3.1011    6.6282 C   0  0  0  0  0  0  0  0  0  0  0  0
   -3.9077    1.1321    6.2692 C   0  0  0  0  0  0  0  0  0  0  0  0
   -9.5576    4.9543    7.9176 C   0  0  0  0  0  0  0  0  0  0  0  0
   -7.2165   -0.0871    8.3512 C   0  0  0  0  0  0  0  0  0  0  0  0
   -8.2558    0.1819    7.5494 C   0  0  0  0  0  0  0  0  0  0  0  0
   -8.0917   -0.1287    6.0791 C   0  0  0  0  0  0  0  0  0  0  0  0
   -5.9480   -0.8850    6.5359 C   0  0  0  0  0  0  0  0  0  0  0  0
   -3.5316    1.2220    3.8281 C   0  0  0  0  0  0  0  0  0  0  0  0
   -8.8630    6.9913    8.9296 C   0  0  0  0  0  0  0  0  0  0  0  0
   -9.5482    0.7648    8.0167 C   0  0  0  0  0  0  0  0  0  0  0  0
   -3.3300   -0.2131    6.5150 C   0  0  0  0  0  0  0  0  0  0  0  0
   -8.8910    4.3783    8.9361 N   0  0  0  0  0  0  0  0  0  0  0  0
  -10.2221    4.3278    6.9279 N   0  0  0  0  0  0  0  0  0  0  0  0
   -6.8821   -0.6695    5.6575 N   0  0  0  0  0  0  0  0  0  0  0  0
   -3.9964    1.7614    5.0929 N   0  0  0  0  0  0  0  0  0  0  0  0
   -4.4345    1.9283    7.2053 N   0  3  0  0  0  0  0  0  0  0  0  0
   -6.0568   -0.6178    7.8731 N   0  0  0  0  0  0  0  0  0  0  0  0
   -9.0198    0.1024    5.3077 O   0  0  0  0  0  0  0  0  0  0  0  0
   -9.5620    6.3294    7.8853 O   0  0  0  0  0  0  0  0  0  0  0  0
   -4.4406   -1.5611    5.9981 S   0  0  0  0  0  0  0  0  0  0  0  0
   -5.7851    5.9587    4.2356 H   0  0  0  0  0  0  0  0  0  0  0  0
   -6.2848    6.1486    6.6430 H   0  0  0  0  0  0  0  0  0  0  0  0
   -4.6790    3.9075    3.3005 H   0  0  0  0  0  0  0  0  0  0  0  0
   -5.7013    4.2925    8.2370 H   0  0  0  0  0  0  0  0  0  0  0  0
   -8.3703    2.5657    9.7581 H   0  0  0  0  0  0  0  0  0  0  0  0
  -10.7348    2.4758    6.1929 H   0  0  0  0  0  0  0  0  0  0  0  0
   -7.2201    0.0943    9.4184 H   0  0  0  0  0  0  0  0  0  0  0  0
   -2.4903    1.5267    3.6938 H   0  0  0  0  0  0  0  0  0  0  0  0
   -3.6116    0.1315    3.8459 H   0  0  0  0  0  0  0  0  0  0  0  0
   -4.1531    1.6135    3.0180 H   0  0  0  0  0  0  0  0  0  0  0  0
   -8.9403    8.0726    8.7926 H   0  0  0  0  0  0  0  0  0  0  0  0
   -7.8137    6.6858    8.9176 H   0  0  0  0  0  0  0  0  0  0  0  0
   -9.3100    6.7148    9.8875 H   0  0  0  0  0  0  0  0  0  0  0  0
   -9.7523    0.4223    9.0379 H   0  0  0  0  0  0  0  0  0  0  0  0
  -10.3640    0.3717    7.3995 H   0  0  0  0  0  0  0  0  0  0  0  0
   -2.3717   -0.3385    5.9845 H   0  0  0  0  0  0  0  0  0  0  0  0
   -3.0985   -0.3554    7.5834 H   0  0  0  0  0  0  0  0  0  0  0  0
   -4.5000    1.7032    8.1944 H   0  0  0  0  0  0  0  0  0  0  0  0
   -5.3037   -0.8009    8.5257 H   0  0  0  0  0  0  0  0  0  0  0  0
  1  2  1  0  0  0  0
  1  3  2  0  0  0  0
  2  4  2  0  0  0  0
  3  8  1  0  0  0  0
  4  9  1  0  0  0  0
  5  7  1  0  0  0  0
  5 20  2  0  0  0  0
  6  7  2  0  0  0  0
  6 21  1  0  0  0  0
  7 18  1  0  0  0  0
  8  9  2  0  0  0  0
  8 23  1  0  0  0  0
  9 24  1  0  0  0  0
 10 19  1  0  0  0  0
 10 23  1  0  0  0  0
 10 24  2  0  0  0  0
 11 20  1  0  0  0  0
 11 21  2  0  0  0  0
 11 27  1  0  0  0  0
 12 13  2  0  0  0  0
 12 25  1  0  0  0  0
 13 14  1  0  0  0  0
 13 18  1  0  0  0  0
 14 22  1  0  0  0  0
 14 26  2  0  0  0  0
 15 22  2  0  0  0  0
 15 25  1  0  0  0  0
 15 28  1  0  0  0  0
 16 23  1  0  0  0  0
 17 27  1  0  0  0  0
 19 28  1  0  0  0  0
  1 29  1  0  0  0  0
  2 30  1  0  0  0  0
  3 31  1  0  0  0  0
  4 32  1  0  0  0  0
  5 33  1  0  0  0  0
  6 34  1  0  0  0  0
 12 35  1  0  0  0  0
 16 36  1  0  0  0  0
 16 37  1  0  0  0  0
 16 38  1  0  0  0  0
 17 39  1  0  0  0  0
 17 40  1  0  0  0  0
 17 41  1  0  0  0  0
 18 42  1  0  0  0  0
 18 43  1  0  0  0  0
 19 44  1  0  0  0  0
 19 45  1  0  0  0  0
 24 46  1  0  0  0  0
 25 47  1  0  0  0  0
M  CHG  1  24   1
M  END
$$$$
