
  -OEChem-07202109493D

 42 43  0     0  0  0  0  0  0999 V2000
   -3.4942   -1.5534    0.3788 C   0  0  0  0  0  0  0  0  0  0  0  0
   -4.7194    0.5226    0.5405 C   0  0  0  0  0  0  0  0  0  0  0  0
   -3.6303   -0.2029    0.0576 C   0  0  0  0  0  0  0  0  0  0  0  0
   -4.4474   -2.1785    1.1829 C   0  0  0  0  0  0  0  0  0  0  0  0
   -5.6725   -0.1024    1.3447 C   0  0  0  0  0  0  0  0  0  0  0  0
   -5.5365   -1.4530    1.6659 C   0  0  0  0  0  0  0  0  0  0  0  0
   -3.7290    1.7553   -2.6654 C   0  0  0  0  0  0  0  0  0  0  0  0
   -3.0705    0.6666   -2.2135 C   0  0  0  0  0  0  0  0  0  0  0  0
   -2.8149   -0.4054   -3.2438 C   0  0  0  0  0  0  0  0  0  0  0  0
   -3.9498    1.0473   -4.8094 C   0  0  0  0  0  0  0  0  0  0  0  0
   -4.2843   -3.6250    1.5160 C   0  0  0  0  0  0  0  0  0  0  0  0
   -6.7613    2.1691    1.3602 C   0  0  0  0  0  0  0  0  0  0  0  0
   -6.8594    0.7136    3.4116 C   0  0  0  0  0  0  0  0  0  0  0  0
   -8.2406    0.1716    1.4167 C   0  0  0  0  0  0  0  0  0  0  0  0
   -2.6016    0.4721   -0.8109 C   0  0  0  0  0  0  0  0  0  0  0  0
   -6.8312    0.6910    1.8524 C   0  0  0  0  0  0  0  0  0  0  0  0
   -4.1893    1.9952   -3.9491 N   0  0  0  0  0  0  0  0  0  0  0  0
   -4.3422    1.1629   -6.0681 N   0  5  0  0  0  0  0  0  0  0  0  0
   -2.1898   -1.4980   -2.9245 N   0  0  0  0  0  0  0  0  0  0  0  0
   -3.2914   -0.1242   -4.5119 N   0  0  0  0  0  0  0  0  0  0  0  0
   -6.4679   -2.0641    2.4527 O   0  0  0  0  0  0  0  0  0  0  0  0
   -2.6452   -2.1188    0.0018 H   0  0  0  0  0  0  0  0  0  0  0  0
   -4.8233    1.5763    0.2916 H   0  0  0  0  0  0  0  0  0  0  0  0
   -3.9436    2.5631   -1.9710 H   0  0  0  0  0  0  0  0  0  0  0  0
   -3.7027   -3.7394    2.4382 H   0  0  0  0  0  0  0  0  0  0  0  0
   -5.2574   -4.1124    1.6538 H   0  0  0  0  0  0  0  0  0  0  0  0
   -3.7698   -4.1620    0.7094 H   0  0  0  0  0  0  0  0  0  0  0  0
   -7.6018    2.7743    1.7195 H   0  0  0  0  0  0  0  0  0  0  0  0
   -5.8439    2.6626    1.6992 H   0  0  0  0  0  0  0  0  0  0  0  0
   -6.7686    2.2053    0.2643 H   0  0  0  0  0  0  0  0  0  0  0  0
   -7.7077    1.2945    3.7897 H   0  0  0  0  0  0  0  0  0  0  0  0
   -6.9384   -0.2892    3.8474 H   0  0  0  0  0  0  0  0  0  0  0  0
   -5.9445    1.1755    3.8013 H   0  0  0  0  0  0  0  0  0  0  0  0
   -9.0576    0.7861    1.8138 H   0  0  0  0  0  0  0  0  0  0  0  0
   -8.3376    0.1746    0.3247 H   0  0  0  0  0  0  0  0  0  0  0  0
   -8.4063   -0.8523    1.7716 H   0  0  0  0  0  0  0  0  0  0  0  0
   -2.3388    1.4443   -0.3769 H   0  0  0  0  0  0  0  0  0  0  0  0
   -1.6743   -0.1127   -0.8184 H   0  0  0  0  0  0  0  0  0  0  0  0
   -5.3172    1.4734   -6.0804 H   0  0  0  0  0  0  0  0  0  0  0  0
   -2.1178   -2.0906   -3.7541 H   0  0  0  0  0  0  0  0  0  0  0  0
   -3.1505   -0.8070   -5.2507 H   0  0  0  0  0  0  0  0  0  0  0  0
   -6.2338   -2.9957    2.5844 H   0  0  0  0  0  0  0  0  0  0  0  0
  1  3  2  0  0  0  0
  1  4  1  0  0  0  0
  2  3  1  0  0  0  0
  2  5  2  0  0  0  0
  3 15  1  0  0  0  0
  4  6  2  0  0  0  0
  4 11  1  0  0  0  0
  5  6  1  0  0  0  0
  5 16  1  0  0  0  0
  6 21  1  0  0  0  0
  7  8  2  0  0  0  0
  7 17  1  0  0  0  0
  8  9  1  0  0  0  0
  8 15  1  0  0  0  0
  9 19  2  0  0  0  0
  9 20  1  0  0  0  0
 10 17  2  0  0  0  0
 10 18  1  0  0  0  0
 10 20  1  0  0  0  0
 12 16  1  0  0  0  0
 13 16  1  0  0  0  0
 14 16  1  0  0  0  0
  1 22  1  0  0  0  0
  2 23  1  0  0  0  0
  7 24  1  0  0  0  0
 11 25  1  0  0  0  0
 11 26  1  0  0  0  0
 11 27  1  0  0  0  0
 12 28  1  0  0  0  0
 12 29  1  0  0  0  0
 12 30  1  0  0  0  0
 13 31  1  0  0  0  0
 13 32  1  0  0  0  0
 13 33  1  0  0  0  0
 14 34  1  0  0  0  0
 14 35  1  0  0  0  0
 14 36  1  0  0  0  0
 15 37  1  0  0  0  0
 15 38  1  0  0  0  0
 18 39  1  0  0  0  0
 19 40  1  0  0  0  0
 20 41  1  0  0  0  0
 21 42  1  0  0  0  0
M  CHG  1  18  -1
M  END
$$$$
