
  -OEChem-07202109493D

 42 43  0     0  0  0  0  0  0999 V2000
    3.0629    3.0312    0.8009 C   0  0  0  0  0  0  0  0  0  0  0  0
    1.3454    3.6368    2.3885 C   0  0  0  0  0  0  0  0  0  0  0  0
    1.7142    3.1272    1.1435 C   0  0  0  0  0  0  0  0  0  0  0  0
    4.0429    3.4448    1.7033 C   0  0  0  0  0  0  0  0  0  0  0  0
    2.3254    4.0504    3.2909 C   0  0  0  0  0  0  0  0  0  0  0  0
    3.6741    3.9544    2.9483 C   0  0  0  0  0  0  0  0  0  0  0  0
   -0.9941    1.1769    1.3085 C   0  0  0  0  0  0  0  0  0  0  0  0
    0.0743    1.3525    0.5201 C   0  0  0  0  0  0  0  0  0  0  0  0
    0.7016    0.1053   -0.0306 C   0  0  0  0  0  0  0  0  0  0  0  0
   -0.8859   -1.1817    1.0742 C   0  0  0  0  0  0  0  0  0  0  0  0
    5.4745    3.3170    1.2771 C   0  0  0  0  0  0  0  0  0  0  0  0
    0.3120    4.5752    4.7110 C   0  0  0  0  0  0  0  0  0  0  0  0
    2.3436    6.0578    4.8129 C   0  0  0  0  0  0  0  0  0  0  0  0
    2.3763    3.8042    5.8624 C   0  0  0  0  0  0  0  0  0  0  0  0
    0.6562    2.6807    0.1694 C   0  0  0  0  0  0  0  0  0  0  0  0
    1.8662    4.5890    4.6124 C   0  0  0  0  0  0  0  0  0  0  0  0
    0.1635   -1.1290    0.2920 N   0  0  0  0  0  0  0  0  0  0  0  0
    1.7374    0.1353   -0.8041 N   0  0  0  0  0  0  0  0  0  0  0  0
   -1.4874   -0.0604    1.5977 N   0  0  0  0  0  0  0  0  0  0  0  0
   -1.4827   -2.3585    1.4444 N   0  0  0  0  0  0  0  0  0  0  0  0
    4.5766    4.3354    3.7793 O   0  5  0  0  0  0  0  0  0  0  0  0
    3.3479    2.6338   -0.1706 H   0  0  0  0  0  0  0  0  0  0  0  0
    0.2931    3.7107    2.6533 H   0  0  0  0  0  0  0  0  0  0  0  0
   -1.5379    1.9925    1.7683 H   0  0  0  0  0  0  0  0  0  0  0  0
    5.7980    4.2328    0.7731 H   0  0  0  0  0  0  0  0  0  0  0  0
    6.1246    3.1389    2.1399 H   0  0  0  0  0  0  0  0  0  0  0  0
    5.6045    2.4715    0.5935 H   0  0  0  0  0  0  0  0  0  0  0  0
   -0.0506    4.9648    5.6694 H   0  0  0  0  0  0  0  0  0  0  0  0
   -0.1476    5.1833    3.9241 H   0  0  0  0  0  0  0  0  0  0  0  0
   -0.0684    3.5528    4.6010 H   0  0  0  0  0  0  0  0  0  0  0  0
    2.0133    6.4615    5.7762 H   0  0  0  0  0  0  0  0  0  0  0  0
    3.4356    6.1512    4.7842 H   0  0  0  0  0  0  0  0  0  0  0  0
    1.9329    6.7033    4.0275 H   0  0  0  0  0  0  0  0  0  0  0  0
    2.0143    4.2358    6.8034 H   0  0  0  0  0  0  0  0  0  0  0  0
    2.0384    2.7616    5.8358 H   0  0  0  0  0  0  0  0  0  0  0  0
    3.4717    3.8074    5.9073 H   0  0  0  0  0  0  0  0  0  0  0  0
   -0.1440    3.4295    0.1309 H   0  0  0  0  0  0  0  0  0  0  0  0
    1.0730    2.6355   -0.8435 H   0  0  0  0  0  0  0  0  0  0  0  0
    1.9935   -0.8230   -1.0581 H   0  0  0  0  0  0  0  0  0  0  0  0
   -2.2993   -0.1201    2.2014 H   0  0  0  0  0  0  0  0  0  0  0  0
   -1.0995   -3.2091    1.1020 H   0  0  0  0  0  0  0  0  0  0  0  0
   -2.2763   -2.3170    2.0412 H   0  0  0  0  0  0  0  0  0  0  0  0
  1  3  2  0  0  0  0
  1  4  1  0  0  0  0
  2  3  1  0  0  0  0
  2  5  2  0  0  0  0
  3 15  1  0  0  0  0
  4  6  2  0  0  0  0
  4 11  1  0  0  0  0
  5  6  1  0  0  0  0
  5 16  1  0  0  0  0
  6 21  1  0  0  0  0
  7  8  2  0  0  0  0
  7 19  1  0  0  0  0
  8  9  1  0  0  0  0
  8 15  1  0  0  0  0
  9 17  1  0  0  0  0
  9 18  2  0  0  0  0
 10 17  2  0  0  0  0
 10 19  1  0  0  0  0
 10 20  1  0  0  0  0
 12 16  1  0  0  0  0
 13 16  1  0  0  0  0
 14 16  1  0  0  0  0
  1 22  1  0  0  0  0
  2 23  1  0  0  0  0
  7 24  1  0  0  0  0
 11 25  1  0  0  0  0
 11 26  1  0  0  0  0
 11 27  1  0  0  0  0
 12 28  1  0  0  0  0
 12 29  1  0  0  0  0
 12 30  1  0  0  0  0
 13 31  1  0  0  0  0
 13 32  1  0  0  0  0
 13 33  1  0  0  0  0
 14 34  1  0  0  0  0
 14 35  1  0  0  0  0
 14 36  1  0  0  0  0
 15 37  1  0  0  0  0
 15 38  1  0  0  0  0
 18 39  1  0  0  0  0
 19 40  1  0  0  0  0
 20 41  1  0  0  0  0
 20 42  1  0  0  0  0
M  CHG  1  21  -1
M  END
$$$$
