
  -OEChem-07202109493D

 47 50  0     0  0  0  0  0  0999 V2000
   -7.7697   -2.5698    2.1385 C   0  0  0  0  0  0  0  0  0  0  0  0
   -7.8583   -3.4707    1.0593 C   0  0  0  0  0  0  0  0  0  0  0  0
   -6.5278   -2.1346    2.6191 C   0  0  0  0  0  0  0  0  0  0  0  0
   -6.7078   -3.9552    0.4380 C   0  0  0  0  0  0  0  0  0  0  0  0
    4.5382   -1.0995    2.2819 C   0  0  0  0  0  0  0  0  0  0  0  0
    4.9589   -2.9365    3.6621 C   0  0  0  0  0  0  0  0  0  0  0  0
    4.6507   -2.4698    2.4005 C   0  0  0  0  0  0  0  0  0  0  0  0
   -5.3877   -2.6131    2.0053 C   0  0  0  0  0  0  0  0  0  0  0  0
   -5.5012   -3.5079    0.9338 C   0  0  0  0  0  0  0  0  0  0  0  0
    5.0080   -0.8193    4.4882 C   0  0  0  0  0  0  0  0  0  0  0  0
    2.3300   -2.8136    0.0219 C   0  0  0  0  0  0  0  0  0  0  0  0
    3.0077   -3.5840    0.8885 C   0  0  0  0  0  0  0  0  0  0  0  0
    2.2635   -4.6956    1.5482 C   0  0  0  0  0  0  0  0  0  0  0  0
   -3.2956   -3.1087    1.3408 C   0  0  0  0  0  0  0  0  0  0  0  0
    0.3762   -3.9146    0.2583 C   0  0  0  0  0  0  0  0  0  0  0  0
   -1.9744   -3.2202    1.1658 C   0  0  0  0  0  0  0  0  0  0  0  0
   -3.5977   -1.4892    3.3041 C   0  0  0  0  0  0  0  0  0  0  0  0
    5.0499    1.4154    5.3007 C   0  0  0  0  0  0  0  0  0  0  0  0
    4.4492   -3.3951    1.2305 C   0  0  0  0  0  0  0  0  0  0  0  0
    4.7110   -0.2415    3.3086 N   0  0  0  0  0  0  0  0  0  0  0  0
    5.1452   -2.1366    4.7325 N   0  0  0  0  0  0  0  0  0  0  0  0
    1.0078   -2.9462   -0.3223 N   0  0  0  0  0  0  0  0  0  0  0  0
    0.9379   -4.7840    1.1663 N   0  0  0  0  0  0  0  0  0  0  0  0
   -4.0404   -2.3708    2.2507 N   0  0  0  0  0  0  0  0  0  0  0  0
   -4.1620   -3.8675    0.4570 N   0  3  0  0  0  0  0  0  0  0  0  0
    2.8015   -5.4494    2.3531 O   0  0  0  0  0  0  0  0  0  0  0  0
    5.1927    0.0258    5.5576 O   0  0  0  0  0  0  0  0  0  0  0  0
   -1.2869   -4.2218   -0.0593 S   0  0  0  0  0  0  0  0  0  0  0  0
   -8.6818   -2.2069    2.6056 H   0  0  0  0  0  0  0  0  0  0  0  0
   -8.8361   -3.7903    0.7089 H   0  0  0  0  0  0  0  0  0  0  0  0
   -6.4803   -1.4405    3.4512 H   0  0  0  0  0  0  0  0  0  0  0  0
   -6.7666   -4.6487   -0.3920 H   0  0  0  0  0  0  0  0  0  0  0  0
    4.2979   -0.6331    1.3317 H   0  0  0  0  0  0  0  0  0  0  0  0
    5.0699   -3.9981    3.8596 H   0  0  0  0  0  0  0  0  0  0  0  0
    2.8389   -1.9941   -0.4771 H   0  0  0  0  0  0  0  0  0  0  0  0
   -1.2996   -2.6668    1.8087 H   0  0  0  0  0  0  0  0  0  0  0  0
   -3.4613   -2.0648    4.2315 H   0  0  0  0  0  0  0  0  0  0  0  0
   -2.6426   -1.0254    3.0167 H   0  0  0  0  0  0  0  0  0  0  0  0
   -4.3518   -0.7051    3.4668 H   0  0  0  0  0  0  0  0  0  0  0  0
    5.2195    1.9765    6.2229 H   0  0  0  0  0  0  0  0  0  0  0  0
    4.0452    1.6150    4.9196 H   0  0  0  0  0  0  0  0  0  0  0  0
    5.7875    1.7162    4.5529 H   0  0  0  0  0  0  0  0  0  0  0  0
    4.9801   -3.0012    0.3563 H   0  0  0  0  0  0  0  0  0  0  0  0
    4.8991   -4.3719    1.4405 H   0  0  0  0  0  0  0  0  0  0  0  0
    0.3598   -5.5150    1.5695 H   0  0  0  0  0  0  0  0  0  0  0  0
   -4.0263   -4.8829    0.5458 H   0  0  0  0  0  0  0  0  0  0  0  0
   -4.0619   -3.5913   -0.5284 H   0  0  0  0  0  0  0  0  0  0  0  0
  1  2  1  0  0  0  0
  1  3  2  0  0  0  0
  2  4  2  0  0  0  0
  3  8  1  0  0  0  0
  4  9  1  0  0  0  0
  5  7  1  0  0  0  0
  5 20  2  0  0  0  0
  6  7  2  0  0  0  0
  6 21  1  0  0  0  0
  7 19  1  0  0  0  0
  8  9  2  0  0  0  0
  8 24  1  0  0  0  0
  9 25  1  0  0  0  0
 10 20  1  0  0  0  0
 10 21  2  0  0  0  0
 10 27  1  0  0  0  0
 11 12  2  0  0  0  0
 11 22  1  0  0  0  0
 12 13  1  0  0  0  0
 12 19  1  0  0  0  0
 13 23  1  0  0  0  0
 13 26  2  0  0  0  0
 14 16  2  0  0  0  0
 14 24  1  0  0  0  0
 14 25  1  0  0  0  0
 15 22  2  0  0  0  0
 15 23  1  0  0  0  0
 15 28  1  0  0  0  0
 16 28  1  0  0  0  0
 17 24  1  0  0  0  0
 18 27  1  0  0  0  0
  1 29  1  0  0  0  0
  2 30  1  0  0  0  0
  3 31  1  0  0  0  0
  4 32  1  0  0  0  0
  5 33  1  0  0  0  0
  6 34  1  0  0  0  0
 11 35  1  0  0  0  0
 16 36  1  0  0  0  0
 17 37  1  0  0  0  0
 17 38  1  0  0  0  0
 17 39  1  0  0  0  0
 18 40  1  0  0  0  0
 18 41  1  0  0  0  0
 18 42  1  0  0  0  0
 19 43  1  0  0  0  0
 19 44  1  0  0  0  0
 23 45  1  0  0  0  0
 25 46  1  0  0  0  0
 25 47  1  0  0  0  0
M  CHG  1  25   1
M  END
$$$$
