
  -OEChem-07202109493D

 35 36  0     0  0  0  0  0  0999 V2000
    4.0079   -0.5634    0.3443 C   0  0  0  0  0  0  0  0  0  0  0  0
    3.1737   -1.6641    0.1356 C   0  0  0  0  0  0  0  0  0  0  0  0
    4.6237   -0.3497    1.5839 C   0  0  0  0  0  0  0  0  0  0  0  0
    2.9245   -2.5895    1.1545 C   0  0  0  0  0  0  0  0  0  0  0  0
    4.3842   -1.2693    2.6190 C   0  0  0  0  0  0  0  0  0  0  0  0
    3.5482   -2.3565    2.3806 C   0  0  0  0  0  0  0  0  0  0  0  0
    4.3268   -2.3639    4.4515 C   0  0  0  0  0  0  0  0  0  0  0  0
    3.5253   -2.8860    7.9342 C   0  0  0  0  0  0  0  0  0  0  0  0
    3.3493   -5.4851    8.3501 C   0  0  0  0  0  0  0  0  0  0  0  0
    5.8147   -5.5107    8.8301 C   0  0  0  0  0  0  0  0  0  0  0  0
    4.2199   -4.5694   10.5268 C   0  0  0  0  0  0  0  0  0  0  0  0
    4.5207   -2.8446    5.8322 C   0  0  0  0  0  0  0  0  0  0  0  0
    4.5032   -4.7561    9.0369 C   0  0  0  0  0  0  0  0  0  0  0  0
    4.8585   -1.2907    3.9105 N   0  0  0  0  0  0  0  0  0  0  0  0
    3.3696   -2.5545    6.7071 N   0  0  0  0  0  0  0  0  0  0  0  0
    3.5298   -3.0394    3.5697 N   0  0  0  0  0  0  0  0  0  0  0  0
    2.6091   -2.7175    8.9179 O   0  0  0  0  0  0  0  0  0  0  0  0
    4.6491   -3.4634    8.4346 O   0  0  0  0  0  0  0  0  0  0  0  0
    4.1827    0.1382   -0.4675 H   0  0  0  0  0  0  0  0  0  0  0  0
    2.7078   -1.8043   -0.8368 H   0  0  0  0  0  0  0  0  0  0  0  0
    5.2709    0.5083    1.7352 H   0  0  0  0  0  0  0  0  0  0  0  0
    2.2781   -3.4449    0.9940 H   0  0  0  0  0  0  0  0  0  0  0  0
    2.4061   -4.9466    8.4962 H   0  0  0  0  0  0  0  0  0  0  0  0
    3.5243   -5.5945    7.2748 H   0  0  0  0  0  0  0  0  0  0  0  0
    3.2056   -6.4828    8.7806 H   0  0  0  0  0  0  0  0  0  0  0  0
    6.6454   -4.9912    9.3213 H   0  0  0  0  0  0  0  0  0  0  0  0
    6.0704   -5.5644    7.7657 H   0  0  0  0  0  0  0  0  0  0  0  0
    5.7610   -6.5301    9.2257 H   0  0  0  0  0  0  0  0  0  0  0  0
    5.0475   -4.0465   11.0197 H   0  0  0  0  0  0  0  0  0  0  0  0
    3.3013   -3.9977   10.6941 H   0  0  0  0  0  0  0  0  0  0  0  0
    4.1233   -5.5385   11.0295 H   0  0  0  0  0  0  0  0  0  0  0  0
    4.7076   -3.9347    5.8593 H   0  0  0  0  0  0  0  0  0  0  0  0
    5.4173   -2.3920    6.2951 H   0  0  0  0  0  0  0  0  0  0  0  0
    3.0176   -3.8912    3.7575 H   0  0  0  0  0  0  0  0  0  0  0  0
    1.7954   -2.3047    8.5801 H   0  0  0  0  0  0  0  0  0  0  0  0
  1  2  1  0  0  0  0
  1  3  2  0  0  0  0
  2  4  2  0  0  0  0
  3  5  1  0  0  0  0
  4  6  1  0  0  0  0
  5  6  2  0  0  0  0
  5 14  1  0  0  0  0
  6 16  1  0  0  0  0
  7 12  1  0  0  0  0
  7 14  2  0  0  0  0
  7 16  1  0  0  0  0
  8 15  2  0  0  0  0
  8 17  1  0  0  0  0
  8 18  1  0  0  0  0
  9 13  1  0  0  0  0
 10 13  1  0  0  0  0
 11 13  1  0  0  0  0
 12 15  1  0  0  0  0
 13 18  1  0  0  0  0
  1 19  1  0  0  0  0
  2 20  1  0  0  0  0
  3 21  1  0  0  0  0
  4 22  1  0  0  0  0
  9 23  1  0  0  0  0
  9 24  1  0  0  0  0
  9 25  1  0  0  0  0
 10 26  1  0  0  0  0
 10 27  1  0  0  0  0
 10 28  1  0  0  0  0
 11 29  1  0  0  0  0
 11 30  1  0  0  0  0
 11 31  1  0  0  0  0
 12 32  1  0  0  0  0
 12 33  1  0  0  0  0
 16 34  1  0  0  0  0
 17 35  1  0  0  0  0
M  END
$$$$
