
  -OEChem-07202109493D

 26 28  0     0  0  0  0  0  0999 V2000
    7.0641    0.0982   -1.6325 C   0  0  0  0  0  0  0  0  0  0  0  0
    6.2763   -0.9405   -2.1284 C   0  0  0  0  0  0  0  0  0  0  0  0
    6.4646    1.2743   -1.1818 C   0  0  0  0  0  0  0  0  0  0  0  0
    4.8890   -0.8032   -2.1736 C   0  0  0  0  0  0  0  0  0  0  0  0
    5.0772    1.4116   -1.2270 C   0  0  0  0  0  0  0  0  0  0  0  0
    0.6594    0.2905   -0.8108 C   0  0  0  0  0  0  0  0  0  0  0  0
    0.1682    0.8407   -2.0012 C   0  0  0  0  0  0  0  0  0  0  0  0
    4.2894    0.3728   -1.7229 C   0  0  0  0  0  0  0  0  0  0  0  0
    2.0408    0.1283   -0.7048 C   0  0  0  0  0  0  0  0  0  0  0  0
    2.8474    0.5150   -1.7699 C   0  0  0  0  0  0  0  0  0  0  0  0
    1.0833    1.1833   -2.9845 C   0  0  0  0  0  0  0  0  0  0  0  0
   -1.0794    1.1845   -2.5587 C   0  0  0  0  0  0  0  0  0  0  0  0
    2.4204    1.0506   -2.9391 N   0  0  0  0  0  0  0  0  0  0  0  0
   -0.9733    1.7005   -3.7877 N   0  0  0  0  0  0  0  0  0  0  0  0
    0.3519    1.6873   -4.0192 N   0  0  0  0  0  0  0  0  0  0  0  0
   -2.2417    0.9933   -1.8811 N   0  0  0  0  0  0  0  0  0  0  0  0
    2.6808   -0.5470    0.7490 Cl  0  0  0  0  0  0  0  0  0  0  0  0
    8.1442   -0.0095   -1.5959 H   0  0  0  0  0  0  0  0  0  0  0  0
    6.7428   -1.8569   -2.4778 H   0  0  0  0  0  0  0  0  0  0  0  0
    7.0773    2.0830   -0.7943 H   0  0  0  0  0  0  0  0  0  0  0  0
    4.2885   -1.6222   -2.5628 H   0  0  0  0  0  0  0  0  0  0  0  0
    4.6240    2.3339   -0.8716 H   0  0  0  0  0  0  0  0  0  0  0  0
   -0.0121    0.0042   -0.0075 H   0  0  0  0  0  0  0  0  0  0  0  0
    0.6888    2.0380   -4.9070 H   0  0  0  0  0  0  0  0  0  0  0  0
   -2.2603    0.5481   -0.9569 H   0  0  0  0  0  0  0  0  0  0  0  0
   -3.1531    1.1996   -2.3050 H   0  0  0  0  0  0  0  0  0  0  0  0
  1  2  1  0  0  0  0
  1  3  2  0  0  0  0
  2  4  2  0  0  0  0
  3  5  1  0  0  0  0
  4  8  1  0  0  0  0
  5  8  2  0  0  0  0
  6  7  1  0  0  0  0
  6  9  2  0  0  0  0
  7 11  2  0  0  0  0
  7 12  1  0  0  0  0
  8 10  1  0  0  0  0
  9 10  1  0  0  0  0
  9 17  1  0  0  0  0
 10 13  2  0  0  0  0
 11 13  1  0  0  0  0
 11 15  1  0  0  0  0
 12 14  2  0  0  0  0
 12 16  1  0  0  0  0
 14 15  1  0  0  0  0
  1 18  1  0  0  0  0
  2 19  1  0  0  0  0
  3 20  1  0  0  0  0
  4 21  1  0  0  0  0
  5 22  1  0  0  0  0
  6 23  1  0  0  0  0
 15 24  1  0  0  0  0
 16 25  1  0  0  0  0
 16 26  1  0  0  0  0
M  END
$$$$
