
  -OEChem-07202109493D

 17 18  0     0  0  0  0  0  0999 V2000
    0.2175   -0.4688   -0.9561 C   0  0  0  0  0  0  0  0  0  0  0  0
   -0.6742   -1.4085   -1.4795 C   0  0  0  0  0  0  0  0  0  0  0  0
    1.6756   -0.7186   -2.8730 C   0  0  0  0  0  0  0  0  0  0  0  0
    0.7916   -1.6713   -3.4245 C   0  0  0  0  0  0  0  0  0  0  0  0
    1.3776   -0.1269   -1.6421 C   0  0  0  0  0  0  0  0  0  0  0  0
   -0.3685   -1.9990   -2.7163 C   0  0  0  0  0  0  0  0  0  0  0  0
   -0.0585   -3.1484   -4.8253 C   0  0  0  0  0  0  0  0  0  0  0  0
   -0.2152   -4.0188   -6.0110 C   0  0  0  0  0  0  0  0  0  0  0  0
    0.9552   -2.3379   -4.6301 N   0  0  0  0  0  0  0  0  0  0  0  0
    2.1817    0.7375   -1.1431 O   0  5  0  0  0  0  0  0  0  0  0  0
   -1.2595   -3.1758   -3.6075 S   0  0  0  0  0  0  0  0  0  0  0  0
   -0.0254   -0.0146    0.0043 H   0  0  0  0  0  0  0  0  0  0  0  0
   -1.5784   -1.6706   -0.9386 H   0  0  0  0  0  0  0  0  0  0  0  0
    2.5793   -0.4617   -3.4230 H   0  0  0  0  0  0  0  0  0  0  0  0
    0.2507   -5.0022   -5.8425 H   0  0  0  0  0  0  0  0  0  0  0  0
   -1.2758   -4.1857   -6.2606 H   0  0  0  0  0  0  0  0  0  0  0  0
    0.2458   -3.5760   -6.9091 H   0  0  0  0  0  0  0  0  0  0  0  0
  1  2  2  0  0  0  0
  1  5  1  0  0  0  0
  2  6  1  0  0  0  0
  3  4  1  0  0  0  0
  3  5  2  0  0  0  0
  4  6  2  0  0  0  0
  4  9  1  0  0  0  0
  5 10  1  0  0  0  0
  6 11  1  0  0  0  0
  7  8  1  0  0  0  0
  7  9  2  0  0  0  0
  7 11  1  0  0  0  0
  1 12  1  0  0  0  0
  2 13  1  0  0  0  0
  3 14  1  0  0  0  0
  8 15  1  0  0  0  0
  8 16  1  0  0  0  0
  8 17  1  0  0  0  0
M  CHG  1  10  -1
M  END
$$$$
