
  -OEChem-07202109493D

 26 26  0     0  0  0  0  0  0999 V2000
    1.8851   -1.0363   -0.1124 C   0  0  0  0  0  0  0  0  0  0  0  0
    2.8783   -1.6520    2.0022 C   0  0  0  0  0  0  0  0  0  0  0  0
    0.8066   -0.4630    0.5610 C   0  0  0  0  0  0  0  0  0  0  0  0
    1.7997   -1.0786    2.6757 C   0  0  0  0  0  0  0  0  0  0  0  0
    2.9210   -1.6309    0.6081 C   0  0  0  0  0  0  0  0  0  0  0  0
    0.7638   -0.4841    1.9551 C   0  0  0  0  0  0  0  0  0  0  0  0
    5.0075   -4.4314   -1.1437 C   0  0  0  0  0  0  0  0  0  0  0  0
   -1.7603   -1.0894    2.9632 C   0  0  0  0  0  0  0  0  0  0  0  0
    4.0740   -2.2446   -0.1116 C   0  0  0  0  0  0  0  0  0  0  0  0
    3.8474   -3.7234   -0.4360 C   0  0  0  0  0  0  0  0  0  0  0  0
    4.8096   -5.6639   -1.3502 O   0  5  0  0  0  0  0  0  0  0  0  0
    6.0091   -3.7231   -1.4371 O   0  0  0  0  0  0  0  0  0  0  0  0
   -0.1350    0.6029    4.1333 O   0  0  0  0  0  0  0  0  0  0  0  0
   -1.1966    1.2405    1.9396 O   0  0  0  0  0  0  0  0  0  0  0  0
   -0.5850    0.2354    2.7982 S   0  0  0  0  0  0  0  0  0  0  0  0
    1.9097   -1.0154   -1.1987 H   0  0  0  0  0  0  0  0  0  0  0  0
    3.6806   -2.1133    2.5719 H   0  0  0  0  0  0  0  0  0  0  0  0
    0.0045   -0.0029   -0.0100 H   0  0  0  0  0  0  0  0  0  0  0  0
    1.7763   -1.1011    3.7620 H   0  0  0  0  0  0  0  0  0  0  0  0
   -2.6382   -0.7077    3.4867 H   0  0  0  0  0  0  0  0  0  0  0  0
   -2.0311   -1.4358    1.9647 H   0  0  0  0  0  0  0  0  0  0  0  0
   -1.2943   -1.8939    3.5340 H   0  0  0  0  0  0  0  0  0  0  0  0
    4.2728   -1.6938   -1.0441 H   0  0  0  0  0  0  0  0  0  0  0  0
    4.9918   -2.1398    0.4875 H   0  0  0  0  0  0  0  0  0  0  0  0
    2.9596   -3.8271   -1.0734 H   0  0  0  0  0  0  0  0  0  0  0  0
    3.6392   -4.2746    0.4901 H   0  0  0  0  0  0  0  0  0  0  0  0
  1  3  2  0  0  0  0
  1  5  1  0  0  0  0
  2  4  1  0  0  0  0
  2  5  2  0  0  0  0
  3  6  1  0  0  0  0
  4  6  2  0  0  0  0
  5  9  1  0  0  0  0
  6 15  1  0  0  0  0
  7 10  1  0  0  0  0
  7 11  1  0  0  0  0
  7 12  2  0  0  0  0
  8 15  1  0  0  0  0
  9 10  1  0  0  0  0
 13 15  2  0  0  0  0
 14 15  2  0  0  0  0
  1 16  1  0  0  0  0
  2 17  1  0  0  0  0
  3 18  1  0  0  0  0
  4 19  1  0  0  0  0
  8 20  1  0  0  0  0
  8 21  1  0  0  0  0
  8 22  1  0  0  0  0
  9 23  1  0  0  0  0
  9 24  1  0  0  0  0
 10 25  1  0  0  0  0
 10 26  1  0  0  0  0
M  CHG  1  11  -1
M  END
$$$$
