
  -OEChem-07202109493D

 36 38  0     0  0  0  0  0  0999 V2000
    2.0002    2.7388   -0.2293 C   0  0  0  0  0  0  0  0  0  0  0  0
    2.2844    4.0318   -0.6627 C   0  0  0  0  0  0  0  0  0  0  0  0
    0.6863    2.3623    0.0534 C   0  0  0  0  0  0  0  0  0  0  0  0
    1.2549    4.9598   -0.8172 C   0  0  0  0  0  0  0  0  0  0  0  0
   -4.0122    1.8053    2.0943 C   0  0  0  0  0  0  0  0  0  0  0  0
   -5.3719    1.6018    2.3297 C   0  0  0  0  0  0  0  0  0  0  0  0
   -4.3039    1.1027   -0.1988 C   0  0  0  0  0  0  0  0  0  0  0  0
   -0.3511    3.2881   -0.0990 C   0  0  0  0  0  0  0  0  0  0  0  0
   -0.0718    4.6080   -0.5398 C   0  0  0  0  0  0  0  0  0  0  0  0
   -3.4782    1.5558    0.8301 C   0  0  0  0  0  0  0  0  0  0  0  0
   -6.1976    1.1487    1.3009 C   0  0  0  0  0  0  0  0  0  0  0  0
   -5.6637    0.8991    0.0366 C   0  0  0  0  0  0  0  0  0  0  0  0
   -1.7841    2.9461    0.1884 C   0  0  0  0  0  0  0  0  0  0  0  0
   -2.2851    5.2381   -0.4496 C   0  0  0  0  0  0  0  0  0  0  0  0
   -7.9890    1.2327    2.8628 C   0  0  0  0  0  0  0  0  0  0  0  0
   -5.8357    0.2244   -2.2374 C   0  0  0  0  0  0  0  0  0  0  0  0
   -1.0695    5.6029   -0.7174 N   0  0  0  0  0  0  0  0  0  0  0  0
   -2.1103    1.7597    0.5932 N   0  0  0  0  0  0  0  0  0  0  0  0
   -2.6610    3.9919   -0.0196 N   0  0  0  0  0  0  0  0  0  0  0  0
   -7.5240    0.9541    1.5437 O   0  0  0  0  0  0  0  0  0  0  0  0
   -6.4598    0.4552   -0.9759 O   0  0  0  0  0  0  0  0  0  0  0  0
   -3.5466    6.3794   -0.6376 Cl  0  0  0  0  0  0  0  0  0  0  0  0
    2.8055    2.0192   -0.1106 H   0  0  0  0  0  0  0  0  0  0  0  0
    3.3093    4.3179   -0.8809 H   0  0  0  0  0  0  0  0  0  0  0  0
    0.4909    1.3480    0.3898 H   0  0  0  0  0  0  0  0  0  0  0  0
    1.4946    5.9649   -1.1565 H   0  0  0  0  0  0  0  0  0  0  0  0
   -3.3766    2.1589    2.9020 H   0  0  0  0  0  0  0  0  0  0  0  0
   -5.7811    1.7978    3.3172 H   0  0  0  0  0  0  0  0  0  0  0  0
   -3.8908    0.9062   -1.1853 H   0  0  0  0  0  0  0  0  0  0  0  0
   -9.0624    1.0362    2.9206 H   0  0  0  0  0  0  0  0  0  0  0  0
   -7.7853    2.2780    3.1087 H   0  0  0  0  0  0  0  0  0  0  0  0
   -7.4638    0.5853    3.5690 H   0  0  0  0  0  0  0  0  0  0  0  0
   -6.5815   -0.1264   -2.9549 H   0  0  0  0  0  0  0  0  0  0  0  0
   -5.0455   -0.5218   -2.1228 H   0  0  0  0  0  0  0  0  0  0  0  0
   -5.4010    1.1606   -2.5955 H   0  0  0  0  0  0  0  0  0  0  0  0
   -3.6482    3.8277    0.1570 H   0  0  0  0  0  0  0  0  0  0  0  0
  1  2  1  0  0  0  0
  1  3  2  0  0  0  0
  2  4  2  0  0  0  0
  3  8  1  0  0  0  0
  4  9  1  0  0  0  0
  5  6  2  0  0  0  0
  5 10  1  0  0  0  0
  6 11  1  0  0  0  0
  7 10  2  0  0  0  0
  7 12  1  0  0  0  0
  8  9  2  0  0  0  0
  8 13  1  0  0  0  0
  9 17  1  0  0  0  0
 10 18  1  0  0  0  0
 11 12  2  0  0  0  0
 11 20  1  0  0  0  0
 12 21  1  0  0  0  0
 13 18  2  0  0  0  0
 13 19  1  0  0  0  0
 14 17  2  0  0  0  0
 14 19  1  0  0  0  0
 14 22  1  0  0  0  0
 15 20  1  0  0  0  0
 16 21  1  0  0  0  0
  1 23  1  0  0  0  0
  2 24  1  0  0  0  0
  3 25  1  0  0  0  0
  4 26  1  0  0  0  0
  5 27  1  0  0  0  0
  6 28  1  0  0  0  0
  7 29  1  0  0  0  0
 15 30  1  0  0  0  0
 15 31  1  0  0  0  0
 15 32  1  0  0  0  0
 16 33  1  0  0  0  0
 16 34  1  0  0  0  0
 16 35  1  0  0  0  0
 19 36  1  0  0  0  0
M  END
$$$$
