
  -OEChem-07202109493D

 28 29  0     0  0  0  0  0  0999 V2000
    3.7453   -2.1551   -0.5372 C   0  0  0  0  0  0  0  0  0  0  0  0
    2.9238   -0.4024    0.9254 C   0  0  0  0  0  0  0  0  0  0  0  0
    1.9230    0.1646    1.7143 C   0  0  0  0  0  0  0  0  0  0  0  0
    0.4549   -1.6770    1.1757 C   0  0  0  0  0  0  0  0  0  0  0  0
    2.6901   -1.6068    0.2615 C   0  0  0  0  0  0  0  0  0  0  0  0
    0.6886   -0.4727    1.8395 C   0  0  0  0  0  0  0  0  0  0  0  0
    1.4557   -2.2441    0.3867 C   0  0  0  0  0  0  0  0  0  0  0  0
   -0.5016    3.6985    3.0393 C   0  0  0  0  0  0  0  0  0  0  0  0
   -1.5971    3.5158    3.8492 C   0  0  0  0  0  0  0  0  0  0  0  0
   -0.6356    1.4308    2.9740 C   0  0  0  0  0  0  0  0  0  0  0  0
    0.1091    4.9379    2.6712 C   0  0  0  0  0  0  0  0  0  0  0  0
   -2.4362    4.5073    4.5525 C   0  0  0  0  0  0  0  0  0  0  0  0
    4.6003   -2.5992   -1.1842 N   0  0  0  0  0  0  0  0  0  0  0  0
    0.0053    2.5068    2.5711 N   0  3  0  0  0  0  0  0  0  0  0  0
   -0.2821    0.0764    2.6091 N   0  0  0  0  0  0  0  0  0  0  0  0
   -0.2559    6.0783    3.0291 O   0  0  0  0  0  0  0  0  0  0  0  0
    1.1938    4.7872    1.8467 O   0  0  0  0  0  0  0  0  0  0  0  0
   -1.9493    1.8379    3.9910 S   0  0  0  0  0  0  0  0  0  0  0  0
    1.1147   -3.7419   -0.4082 Cl  0  0  0  0  0  0  0  0  0  0  0  0
    3.8807    0.1075    0.8404 H   0  0  0  0  0  0  0  0  0  0  0  0
    2.1130    1.1026    2.2293 H   0  0  0  0  0  0  0  0  0  0  0  0
   -0.5105   -2.1676    1.2791 H   0  0  0  0  0  0  0  0  0  0  0  0
   -3.2780    4.8334    3.9205 H   0  0  0  0  0  0  0  0  0  0  0  0
   -2.8560    4.1028    5.4888 H   0  0  0  0  0  0  0  0  0  0  0  0
   -1.8625    5.4053    4.8377 H   0  0  0  0  0  0  0  0  0  0  0  0
    0.8138    2.4234    1.9574 H   0  0  0  0  0  0  0  0  0  0  0  0
   -0.9445   -0.5857    3.0595 H   0  0  0  0  0  0  0  0  0  0  0  0
    1.6206    5.6321    1.5889 H   0  0  0  0  0  0  0  0  0  0  0  0
  1  5  1  0  0  0  0
  1 13  3  0  0  0  0
  2  3  2  0  0  0  0
  2  5  1  0  0  0  0
  3  6  1  0  0  0  0
  4  6  2  0  0  0  0
  4  7  1  0  0  0  0
  5  7  2  0  0  0  0
  6 15  1  0  0  0  0
  7 19  1  0  0  0  0
  8  9  2  0  0  0  0
  8 11  1  0  0  0  0
  8 14  1  0  0  0  0
  9 12  1  0  0  0  0
  9 18  1  0  0  0  0
 10 14  2  0  0  0  0
 10 15  1  0  0  0  0
 10 18  1  0  0  0  0
 11 16  2  0  0  0  0
 11 17  1  0  0  0  0
  2 20  1  0  0  0  0
  3 21  1  0  0  0  0
  4 22  1  0  0  0  0
 12 23  1  0  0  0  0
 12 24  1  0  0  0  0
 12 25  1  0  0  0  0
 14 26  1  0  0  0  0
 15 27  1  0  0  0  0
 17 28  1  0  0  0  0
M  CHG  1  14   1
M  END
$$$$
