
  -OEChem-07202109493D

 35 36  0     0  0  0  0  0  0999 V2000
   -1.0336    1.2022    4.9570 C   0  0  0  0  0  0  0  0  0  0  0  0
    0.2302    1.6385    4.5231 C   0  0  0  0  0  0  0  0  0  0  0  0
   -1.7118    0.1877    4.2766 C   0  0  0  0  0  0  0  0  0  0  0  0
    0.8372    1.0677    3.4016 C   0  0  0  0  0  0  0  0  0  0  0  0
   -1.1129   -0.3525    3.1552 C   0  0  0  0  0  0  0  0  0  0  0  0
    0.1470    0.0825    2.7227 C   0  0  0  0  0  0  0  0  0  0  0  0
   -0.1038   -2.9450    1.2333 C   0  0  0  0  0  0  0  0  0  0  0  0
    0.1996   -4.9322    0.1513 C   0  0  0  0  0  0  0  0  0  0  0  0
   -0.5646   -1.5305    1.2973 C   0  0  0  0  0  0  0  0  0  0  0  0
   -0.3783   -7.7051   -0.2259 C   0  0  0  0  0  0  0  0  0  0  0  0
    0.0136   -7.2649   -2.6676 C   0  0  0  0  0  0  0  0  0  0  0  0
    1.8809   -6.9319   -1.0212 C   0  0  0  0  0  0  0  0  0  0  0  0
    0.3715   -6.8463   -1.2432 C   0  0  0  0  0  0  0  0  0  0  0  0
   -0.2451   -3.6307    0.1487 N   0  0  0  0  0  0  0  0  0  0  0  0
   -1.5585   -1.4117    2.3624 N   0  0  0  0  0  0  0  0  0  0  0  0
    0.5731   -0.6759    1.6308 N   0  0  0  0  0  0  0  0  0  0  0  0
    0.7265   -5.5327    1.0826 O   0  0  0  0  0  0  0  0  0  0  0  0
   -0.0370   -5.4835   -1.0784 O   0  0  0  0  0  0  0  0  0  0  0  0
   -1.4813    1.6513    5.8393 H   0  0  0  0  0  0  0  0  0  0  0  0
    0.7457    2.4197    5.0755 H   0  0  0  0  0  0  0  0  0  0  0  0
   -2.6765   -0.1624    4.6272 H   0  0  0  0  0  0  0  0  0  0  0  0
    1.8222    1.3914    3.0833 H   0  0  0  0  0  0  0  0  0  0  0  0
    0.3536   -3.3558    2.1504 H   0  0  0  0  0  0  0  0  0  0  0  0
   -0.9974   -1.2399    0.3339 H   0  0  0  0  0  0  0  0  0  0  0  0
   -0.1241   -7.4077    0.7978 H   0  0  0  0  0  0  0  0  0  0  0  0
   -1.4630   -7.6251   -0.3520 H   0  0  0  0  0  0  0  0  0  0  0  0
   -0.0957   -8.7598   -0.3206 H   0  0  0  0  0  0  0  0  0  0  0  0
    0.5494   -6.6513   -3.4008 H   0  0  0  0  0  0  0  0  0  0  0  0
   -1.0547   -7.1152   -2.8616 H   0  0  0  0  0  0  0  0  0  0  0  0
    0.2556   -8.3164   -2.8525 H   0  0  0  0  0  0  0  0  0  0  0  0
    2.4190   -6.3160   -1.7508 H   0  0  0  0  0  0  0  0  0  0  0  0
    2.1602   -6.6000   -0.0160 H   0  0  0  0  0  0  0  0  0  0  0  0
    2.2376   -7.9588   -1.1606 H   0  0  0  0  0  0  0  0  0  0  0  0
   -2.5257   -1.6889    2.2863 H   0  0  0  0  0  0  0  0  0  0  0  0
    1.2828   -0.3738    0.9801 H   0  0  0  0  0  0  0  0  0  0  0  0
  1  2  1  0  0  0  0
  1  3  2  0  0  0  0
  2  4  2  0  0  0  0
  3  5  1  0  0  0  0
  4  6  1  0  0  0  0
  5  6  2  0  0  0  0
  5 15  1  0  0  0  0
  6 16  1  0  0  0  0
  7  9  1  0  0  0  0
  7 14  2  0  0  0  0
  8 14  1  0  0  0  0
  8 17  2  0  0  0  0
  8 18  1  0  0  0  0
  9 15  1  0  0  0  0
  9 16  1  0  0  0  0
 10 13  1  0  0  0  0
 11 13  1  0  0  0  0
 12 13  1  0  0  0  0
 13 18  1  0  0  0  0
  1 19  1  0  0  0  0
  2 20  1  0  0  0  0
  3 21  1  0  0  0  0
  4 22  1  0  0  0  0
  7 23  1  0  0  0  0
  9 24  1  0  0  0  0
 10 25  1  0  0  0  0
 10 26  1  0  0  0  0
 10 27  1  0  0  0  0
 11 28  1  0  0  0  0
 11 29  1  0  0  0  0
 11 30  1  0  0  0  0
 12 31  1  0  0  0  0
 12 32  1  0  0  0  0
 12 33  1  0  0  0  0
 15 34  1  0  0  0  0
 16 35  1  0  0  0  0
M  END
$$$$
