
  -OEChem-07202109493D

 31 33  0     0  0  0  0  0  0999 V2000
    7.4524    1.8463    3.1152 C   0  0  0  0  0  0  0  0  0  0  0  0
    5.3890   -4.3448   -1.8647 C   0  0  0  0  0  0  0  0  0  0  0  0
    6.5987    2.8734    3.5018 C   0  0  0  0  0  0  0  0  0  0  0  0
    4.8570   -3.0616   -1.9906 C   0  0  0  0  0  0  0  0  0  0  0  0
    6.9280    0.7103    2.5066 C   0  0  0  0  0  0  0  0  0  0  0  0
    6.0518   -4.7133   -0.6939 C   0  0  0  0  0  0  0  0  0  0  0  0
    5.2231    2.7629    3.2789 C   0  0  0  0  0  0  0  0  0  0  0  0
    4.9878   -2.1467   -0.9458 C   0  0  0  0  0  0  0  0  0  0  0  0
    5.5435    0.6067    2.2860 C   0  0  0  0  0  0  0  0  0  0  0  0
    6.1826   -3.7985    0.3509 C   0  0  0  0  0  0  0  0  0  0  0  0
    4.6711    1.6375    2.6718 C   0  0  0  0  0  0  0  0  0  0  0  0
    5.6505   -2.5152    0.2250 C   0  0  0  0  0  0  0  0  0  0  0  0
    4.9553   -0.5013    1.6825 C   0  0  0  0  0  0  0  0  0  0  0  0
    2.8984    0.4239    1.8714 C   0  0  0  0  0  0  0  0  0  0  0  0
    6.8973   -4.2200    1.5934 C   0  0  0  0  0  0  0  0  0  0  0  0
    3.3455    1.5490    2.4654 N   0  0  0  0  0  0  0  0  0  0  0  0
    3.6329   -0.6226    1.4611 N   0  0  0  0  0  0  0  0  0  0  0  0
    5.7727   -1.5815    1.2662 N   0  0  0  0  0  0  0  0  0  0  0  0
    1.2122    0.3200    1.6132 Cl  0  0  0  0  0  0  0  0  0  0  0  0
    8.5211    1.9303    3.2874 H   0  0  0  0  0  0  0  0  0  0  0  0
    5.2871   -5.0570   -2.6783 H   0  0  0  0  0  0  0  0  0  0  0  0
    6.9999    3.7636    3.9777 H   0  0  0  0  0  0  0  0  0  0  0  0
    4.3409   -2.7748   -2.9022 H   0  0  0  0  0  0  0  0  0  0  0  0
    7.6154   -0.0789    2.2136 H   0  0  0  0  0  0  0  0  0  0  0  0
    6.4627   -5.7156   -0.6058 H   0  0  0  0  0  0  0  0  0  0  0  0
    4.5765    3.5810    3.5909 H   0  0  0  0  0  0  0  0  0  0  0  0
    4.5691   -1.1495   -1.0553 H   0  0  0  0  0  0  0  0  0  0  0  0
    7.9672   -3.9979    1.5094 H   0  0  0  0  0  0  0  0  0  0  0  0
    6.5000   -3.7008    2.4740 H   0  0  0  0  0  0  0  0  0  0  0  0
    6.7759   -5.2951    1.7743 H   0  0  0  0  0  0  0  0  0  0  0  0
    6.6043   -1.6958    1.8334 H   0  0  0  0  0  0  0  0  0  0  0  0
  1  3  1  0  0  0  0
  1  5  2  0  0  0  0
  2  4  1  0  0  0  0
  2  6  2  0  0  0  0
  3  7  2  0  0  0  0
  4  8  2  0  0  0  0
  5  9  1  0  0  0  0
  6 10  1  0  0  0  0
  7 11  1  0  0  0  0
  8 12  1  0  0  0  0
  9 11  2  0  0  0  0
  9 13  1  0  0  0  0
 10 12  2  0  0  0  0
 10 15  1  0  0  0  0
 11 16  1  0  0  0  0
 12 18  1  0  0  0  0
 13 17  2  0  0  0  0
 13 18  1  0  0  0  0
 14 16  2  0  0  0  0
 14 17  1  0  0  0  0
 14 19  1  0  0  0  0
  1 20  1  0  0  0  0
  2 21  1  0  0  0  0
  3 22  1  0  0  0  0
  4 23  1  0  0  0  0
  5 24  1  0  0  0  0
  6 25  1  0  0  0  0
  7 26  1  0  0  0  0
  8 27  1  0  0  0  0
 15 28  1  0  0  0  0
 15 29  1  0  0  0  0
 15 30  1  0  0  0  0
 18 31  1  0  0  0  0
M  END
$$$$
