
  -OEChem-07202109493D

 30 31  0     0  0  0  0  0  0999 V2000
    1.0634   -3.7085   -3.0111 C   0  0  0  0  0  0  0  0  0  0  0  0
    0.2494   -4.7343   -2.5306 C   0  0  0  0  0  0  0  0  0  0  0  0
    0.6914   -2.3772   -2.8240 C   0  0  0  0  0  0  0  0  0  0  0  0
   -1.3087   -3.0975   -1.6760 C   0  0  0  0  0  0  0  0  0  0  0  0
   -0.9367   -4.4287   -1.8631 C   0  0  0  0  0  0  0  0  0  0  0  0
   -0.4947   -2.0717   -2.1565 C   0  0  0  0  0  0  0  0  0  0  0  0
   -0.8019    1.2375   -0.6161 C   0  0  0  0  0  0  0  0  0  0  0  0
   -0.3864    1.8580    0.4927 C   0  0  0  0  0  0  0  0  0  0  0  0
    0.7962   -0.2142    1.2449 C   0  0  0  0  0  0  0  0  0  0  0  0
    0.3973   -0.8683    0.1460 C   0  0  0  0  0  0  0  0  0  0  0  0
   -0.4415   -0.1806   -0.8777 C   0  0  0  0  0  0  0  0  0  0  0  0
    0.8445   -2.2631    0.0425 C   0  0  0  0  0  0  0  0  0  0  0  0
    0.4545    1.2124    1.5457 C   0  0  0  0  0  0  0  0  0  0  0  0
   -1.8072   -5.5253   -1.3492 C   0  0  0  0  0  0  0  0  0  0  0  0
   -0.8691   -0.7325   -1.9686 N   0  0  0  0  0  0  0  0  0  0  0  0
    1.8817   -2.6141   -0.4858 O   0  0  0  0  0  0  0  0  0  0  0  0
   -0.0681   -3.0713    0.6185 O   0  0  0  0  0  0  0  0  0  0  0  0
   -1.3198   -6.7759   -1.6030 F   0  0  0  0  0  0  0  0  0  0  0  0
   -1.9966   -5.4848    0.0029 F   0  0  0  0  0  0  0  0  0  0  0  0
   -3.0580   -5.5023   -1.8949 F   0  0  0  0  0  0  0  0  0  0  0  0
    1.9871   -3.9465   -3.5305 H   0  0  0  0  0  0  0  0  0  0  0  0
    0.5475   -5.7688   -2.6803 H   0  0  0  0  0  0  0  0  0  0  0  0
    1.3321   -1.5848   -3.2020 H   0  0  0  0  0  0  0  0  0  0  0  0
   -2.2333   -2.8593   -1.1547 H   0  0  0  0  0  0  0  0  0  0  0  0
   -1.4104    1.7549   -1.3497 H   0  0  0  0  0  0  0  0  0  0  0  0
   -0.6687    2.8955    0.6499 H   0  0  0  0  0  0  0  0  0  0  0  0
    1.4094   -0.7128    1.9926 H   0  0  0  0  0  0  0  0  0  0  0  0
    1.3831    1.7833    1.6583 H   0  0  0  0  0  0  0  0  0  0  0  0
   -0.0776    1.2559    2.5027 H   0  0  0  0  0  0  0  0  0  0  0  0
    0.1968   -4.0145    0.5686 H   0  0  0  0  0  0  0  0  0  0  0  0
  1  2  1  0  0  0  0
  1  3  2  0  0  0  0
  2  5  2  0  0  0  0
  3  6  1  0  0  0  0
  4  5  1  0  0  0  0
  4  6  2  0  0  0  0
  5 14  1  0  0  0  0
  6 15  1  0  0  0  0
  7  8  2  0  0  0  0
  7 11  1  0  0  0  0
  8 13  1  0  0  0  0
  9 10  2  0  0  0  0
  9 13  1  0  0  0  0
 10 11  1  0  0  0  0
 10 12  1  0  0  0  0
 11 15  2  0  0  0  0
 12 16  2  0  0  0  0
 12 17  1  0  0  0  0
 14 18  1  0  0  0  0
 14 19  1  0  0  0  0
 14 20  1  0  0  0  0
  1 21  1  0  0  0  0
  2 22  1  0  0  0  0
  3 23  1  0  0  0  0
  4 24  1  0  0  0  0
  7 25  1  0  0  0  0
  8 26  1  0  0  0  0
  9 27  1  0  0  0  0
 13 28  1  0  0  0  0
 13 29  1  0  0  0  0
 17 30  1  0  0  0  0
M  END
$$$$
