
  -OEChem-07202109493D

 26 28  0     1  0  0  0  0  0999 V2000
   -2.6402   -3.7435    4.2063 C   0  0  0  0  0  0  0  0  0  0  0  0
   -2.8852   -3.9717    2.8522 C   0  0  0  0  0  0  0  0  0  0  0  0
   -1.7934   -2.7062    4.5968 C   0  0  0  0  0  0  0  0  0  0  0  0
   -2.2831   -3.1626    1.8886 C   0  0  0  0  0  0  0  0  0  0  0  0
   -1.1913   -1.8971    3.6332 C   0  0  0  0  0  0  0  0  0  0  0  0
   -1.4361   -2.1253    2.2791 C   0  0  0  0  0  0  0  0  0  0  0  0
   -0.8052   -1.2776    1.2692 C   0  0  0  0  0  0  0  0  0  0  0  0
    0.1075    0.2325   -0.8057 C   0  0  0  0  0  0  0  0  0  0  0  0
   -0.4178    0.7533    0.2966 C   0  0  0  0  0  0  0  0  0  0  0  0
    0.5418    1.4295   -1.4908 C   0  0  0  0  0  0  0  0  0  0  0  0
    0.2150   -1.2014   -1.0910 C   0  0  0  0  0  0  0  0  0  0  0  0
    0.1203   -1.9637    0.2381 C   0  0  1  0  0  0  0  0  0  0  0  0
   -0.9979    0.0155    1.2897 N   0  0  0  0  0  0  0  0  0  0  0  0
   -0.3656    2.1187    0.3199 N   0  0  0  0  0  0  0  0  0  0  0  0
    0.2015    2.5285   -0.7302 N   0  0  0  0  0  0  0  0  0  0  0  0
    1.1465    1.5164   -2.6200 N   0  0  0  0  0  0  0  0  0  0  0  0
    1.7316   -2.0619    1.0224 Cl  0  0  0  0  0  0  0  0  0  0  0  0
   -3.1090   -4.3735    4.9566 H   0  0  0  0  0  0  0  0  0  0  0  0
   -3.5444   -4.7795    2.5484 H   0  0  0  0  0  0  0  0  0  0  0  0
   -1.6029   -2.5283    5.6511 H   0  0  0  0  0  0  0  0  0  0  0  0
   -2.4809   -3.3492    0.8362 H   0  0  0  0  0  0  0  0  0  0  0  0
   -0.5331   -1.0918    3.9490 H   0  0  0  0  0  0  0  0  0  0  0  0
   -0.6195   -1.4922   -1.7400 H   0  0  0  0  0  0  0  0  0  0  0  0
    1.1412   -1.4403   -1.6245 H   0  0  0  0  0  0  0  0  0  0  0  0
   -0.2074   -2.9936    0.0643 H   0  0  0  0  0  0  0  0  0  0  0  0
    1.3220    2.5037   -2.8411 H   0  0  0  0  0  0  0  0  0  0  0  0
  1  2  1  0  0  0  0
  1  3  2  0  0  0  0
  2  4  2  0  0  0  0
  3  5  1  0  0  0  0
  4  6  1  0  0  0  0
  5  6  2  0  0  0  0
  6  7  1  0  0  0  0
  7 12  1  0  0  0  0
  7 13  2  0  0  0  0
  8  9  2  0  0  0  0
  8 10  1  0  0  0  0
  8 11  1  0  0  0  0
  9 13  1  0  0  0  0
  9 14  1  0  0  0  0
 10 15  1  0  0  0  0
 10 16  2  0  0  0  0
 11 12  1  0  0  0  0
 12 17  1  0  0  0  0
 14 15  2  0  0  0  0
  1 18  1  0  0  0  0
  2 19  1  0  0  0  0
  3 20  1  0  0  0  0
  4 21  1  0  0  0  0
  5 22  1  0  0  0  0
 11 23  1  0  0  0  0
 11 24  1  0  0  0  0
 12 25  1  0  0  0  0
 16 26  1  0  0  0  0
M  END
$$$$
