
  -OEChem-07202109493D

 40 41  0     0  0  0  0  0  0999 V2000
    2.2841    3.7913   -0.1813 C   0  0  0  0  0  0  0  0  0  0  0  0
    0.0000    4.0016    0.5772 C   0  0  0  0  0  0  0  0  0  0  0  0
    0.9495    3.3903   -0.2415 C   0  0  0  0  0  0  0  0  0  0  0  0
    2.6693    4.8036    0.6977 C   0  0  0  0  0  0  0  0  0  0  0  0
    0.3851    5.0140    1.4562 C   0  0  0  0  0  0  0  0  0  0  0  0
    1.7198    5.4149    1.5164 C   0  0  0  0  0  0  0  0  0  0  0  0
    0.3073    0.9924   -0.4960 C   0  0  0  0  0  0  0  0  0  0  0  0
   -0.8954    0.4337   -0.2249 C   0  0  0  0  0  0  0  0  0  0  0  0
    1.5069    0.2058   -0.0475 C   0  0  0  0  0  0  0  0  0  0  0  0
   -0.0472   -1.4454    0.8000 C   0  0  0  0  0  0  0  0  0  0  0  0
    4.8819    4.5101   -0.1231 C   0  0  0  0  0  0  0  0  0  0  0  0
   -1.8935    5.1342    2.1265 C   0  0  0  0  0  0  0  0  0  0  0  0
   -3.2138    0.4172   -0.2694 C   0  0  0  0  0  0  0  0  0  0  0  0
    0.5340    2.2990   -1.1895 C   0  0  0  0  0  0  0  0  0  0  0  0
   -1.1080   -0.7776    0.4182 N   0  0  0  0  0  0  0  0  0  0  0  0
    2.7090    0.6527   -0.2588 N   0  0  0  0  0  0  0  0  0  0  0  0
    1.2366   -0.9880    0.5850 N   0  0  0  0  0  0  0  0  0  0  0  0
   -0.1112   -2.6528    1.4444 N   0  0  0  0  0  0  0  0  0  0  0  0
    2.0962    6.4044    2.3756 O   0  0  0  0  0  0  0  0  0  0  0  0
    3.9760    5.1858    0.7468 O   0  0  0  0  0  0  0  0  0  0  0  0
   -0.5522    5.6030    2.2503 O   0  0  0  0  0  0  0  0  0  0  0  0
   -2.0417    1.1103   -0.6131 O   0  0  0  0  0  0  0  0  0  0  0  0
    3.0262    3.3163   -0.8186 H   0  0  0  0  0  0  0  0  0  0  0  0
   -1.0410    3.6909    0.5322 H   0  0  0  0  0  0  0  0  0  0  0  0
    5.8891    4.9104    0.0162 H   0  0  0  0  0  0  0  0  0  0  0  0
    4.5640    4.6474   -1.1597 H   0  0  0  0  0  0  0  0  0  0  0  0
    4.8791    3.4447    0.1187 H   0  0  0  0  0  0  0  0  0  0  0  0
   -2.5383    5.6868    2.8143 H   0  0  0  0  0  0  0  0  0  0  0  0
   -1.9296    4.0661    2.3550 H   0  0  0  0  0  0  0  0  0  0  0  0
   -2.2338    5.2972    1.1012 H   0  0  0  0  0  0  0  0  0  0  0  0
   -4.0855    0.9897   -0.5957 H   0  0  0  0  0  0  0  0  0  0  0  0
   -3.2463    0.2688    0.8129 H   0  0  0  0  0  0  0  0  0  0  0  0
   -3.2114   -0.5547   -0.7685 H   0  0  0  0  0  0  0  0  0  0  0  0
   -0.3834    2.5929   -1.7103 H   0  0  0  0  0  0  0  0  0  0  0  0
    1.2929    2.1624   -1.9665 H   0  0  0  0  0  0  0  0  0  0  0  0
    3.3799   -0.0201    0.1167 H   0  0  0  0  0  0  0  0  0  0  0  0
    2.0153   -1.5555    0.9067 H   0  0  0  0  0  0  0  0  0  0  0  0
   -1.0072   -3.0405    1.6310 H   0  0  0  0  0  0  0  0  0  0  0  0
    0.7406   -3.0960    1.7012 H   0  0  0  0  0  0  0  0  0  0  0  0
    1.3278    6.7261    2.8719 H   0  0  0  0  0  0  0  0  0  0  0  0
  1  3  2  0  0  0  0
  1  4  1  0  0  0  0
  2  3  1  0  0  0  0
  2  5  2  0  0  0  0
  3 14  1  0  0  0  0
  4  6  2  0  0  0  0
  4 20  1  0  0  0  0
  5  6  1  0  0  0  0
  5 21  1  0  0  0  0
  6 19  1  0  0  0  0
  7  8  2  0  0  0  0
  7  9  1  0  0  0  0
  7 14  1  0  0  0  0
  8 15  1  0  0  0  0
  8 22  1  0  0  0  0
  9 16  2  0  0  0  0
  9 17  1  0  0  0  0
 10 15  2  0  0  0  0
 10 17  1  0  0  0  0
 10 18  1  0  0  0  0
 11 20  1  0  0  0  0
 12 21  1  0  0  0  0
 13 22  1  0  0  0  0
  1 23  1  0  0  0  0
  2 24  1  0  0  0  0
 11 25  1  0  0  0  0
 11 26  1  0  0  0  0
 11 27  1  0  0  0  0
 12 28  1  0  0  0  0
 12 29  1  0  0  0  0
 12 30  1  0  0  0  0
 13 31  1  0  0  0  0
 13 32  1  0  0  0  0
 13 33  1  0  0  0  0
 14 34  1  0  0  0  0
 14 35  1  0  0  0  0
 16 36  1  0  0  0  0
 17 37  1  0  0  0  0
 18 38  1  0  0  0  0
 18 39  1  0  0  0  0
 19 40  1  0  0  0  0
M  END
$$$$
