
  -OEChem-07202109493D

 42 43  0     0  0  0  0  0  0999 V2000
   -0.2572    4.4405   -0.8040 C   0  0  0  0  0  0  0  0  0  0  0  0
   -1.8392    3.1999   -2.1436 C   0  0  0  0  0  0  0  0  0  0  0  0
   -0.5875    3.3004   -1.5365 C   0  0  0  0  0  0  0  0  0  0  0  0
   -1.1787    5.4801   -0.6784 C   0  0  0  0  0  0  0  0  0  0  0  0
   -2.7608    4.2395   -2.0182 C   0  0  0  0  0  0  0  0  0  0  0  0
   -2.4305    5.3796   -1.2856 C   0  0  0  0  0  0  0  0  0  0  0  0
   -0.6839   -0.0288   -1.1308 C   0  0  0  0  0  0  0  0  0  0  0  0
    0.0927    1.0194   -0.7873 C   0  0  0  0  0  0  0  0  0  0  0  0
    0.6583    0.9644    0.6070 C   0  0  0  0  0  0  0  0  0  0  0  0
   -0.5098   -1.1557    0.8492 C   0  0  0  0  0  0  0  0  0  0  0  0
   -0.7651    6.6790    0.1210 C   0  0  0  0  0  0  0  0  0  0  0  0
   -4.1705    2.7042   -3.4329 C   0  0  0  0  0  0  0  0  0  0  0  0
   -4.3262    5.1972   -3.7442 C   0  0  0  0  0  0  0  0  0  0  0  0
   -5.3267    4.1139   -1.7425 C   0  0  0  0  0  0  0  0  0  0  0  0
    0.4075    2.1779   -1.6720 C   0  0  0  0  0  0  0  0  0  0  0  0
   -4.0888    4.0724   -2.6934 C   0  0  0  0  0  0  0  0  0  0  0  0
   -1.0138   -1.1291   -0.3610 N   0  0  0  0  0  0  0  0  0  0  0  0
    1.4200    1.9173    1.0523 N   0  0  0  0  0  0  0  0  0  0  0  0
    0.3035   -0.1520    1.3402 N   0  0  0  0  0  0  0  0  0  0  0  0
   -0.7413   -2.1736    1.7369 N   0  0  0  0  0  0  0  0  0  0  0  0
   -3.2791    6.3370   -1.1701 O   0  5  0  0  0  0  0  0  0  0  0  0
    0.7196    4.5167   -0.3317 H   0  0  0  0  0  0  0  0  0  0  0  0
   -2.0944    2.3099   -2.7144 H   0  0  0  0  0  0  0  0  0  0  0  0
   -1.1235   -0.0501   -2.1244 H   0  0  0  0  0  0  0  0  0  0  0  0
   -0.2846    7.4154   -0.5304 H   0  0  0  0  0  0  0  0  0  0  0  0
   -1.6307    7.1444    0.6037 H   0  0  0  0  0  0  0  0  0  0  0  0
   -0.0646    6.3970    0.9141 H   0  0  0  0  0  0  0  0  0  0  0  0
   -5.1332    2.5567   -3.9360 H   0  0  0  0  0  0  0  0  0  0  0  0
   -3.3922    2.6122   -4.1984 H   0  0  0  0  0  0  0  0  0  0  0  0
   -4.0342    1.8786   -2.7244 H   0  0  0  0  0  0  0  0  0  0  0  0
   -5.2945    5.0846   -4.2439 H   0  0  0  0  0  0  0  0  0  0  0  0
   -4.3111    6.1982   -3.2972 H   0  0  0  0  0  0  0  0  0  0  0  0
   -3.5507    5.1660   -4.5186 H   0  0  0  0  0  0  0  0  0  0  0  0
   -6.2730    3.9875   -2.2823 H   0  0  0  0  0  0  0  0  0  0  0  0
   -5.2739    3.3141   -0.9945 H   0  0  0  0  0  0  0  0  0  0  0  0
   -5.3833    5.0727   -1.2140 H   0  0  0  0  0  0  0  0  0  0  0  0
    0.4379    1.8415   -2.7155 H   0  0  0  0  0  0  0  0  0  0  0  0
    1.4167    2.5414   -1.4455 H   0  0  0  0  0  0  0  0  0  0  0  0
    1.6985    1.6956    2.0103 H   0  0  0  0  0  0  0  0  0  0  0  0
    0.6584   -0.2384    2.2883 H   0  0  0  0  0  0  0  0  0  0  0  0
   -1.3198   -2.9283    1.4479 H   0  0  0  0  0  0  0  0  0  0  0  0
   -0.3220   -2.1191    2.6363 H   0  0  0  0  0  0  0  0  0  0  0  0
  1  3  2  0  0  0  0
  1  4  1  0  0  0  0
  2  3  1  0  0  0  0
  2  5  2  0  0  0  0
  3 15  1  0  0  0  0
  4  6  2  0  0  0  0
  4 11  1  0  0  0  0
  5  6  1  0  0  0  0
  5 16  1  0  0  0  0
  6 21  1  0  0  0  0
  7  8  2  0  0  0  0
  7 17  1  0  0  0  0
  8  9  1  0  0  0  0
  8 15  1  0  0  0  0
  9 18  2  0  0  0  0
  9 19  1  0  0  0  0
 10 17  2  0  0  0  0
 10 19  1  0  0  0  0
 10 20  1  0  0  0  0
 12 16  1  0  0  0  0
 13 16  1  0  0  0  0
 14 16  1  0  0  0  0
  1 22  1  0  0  0  0
  2 23  1  0  0  0  0
  7 24  1  0  0  0  0
 11 25  1  0  0  0  0
 11 26  1  0  0  0  0
 11 27  1  0  0  0  0
 12 28  1  0  0  0  0
 12 29  1  0  0  0  0
 12 30  1  0  0  0  0
 13 31  1  0  0  0  0
 13 32  1  0  0  0  0
 13 33  1  0  0  0  0
 14 34  1  0  0  0  0
 14 35  1  0  0  0  0
 14 36  1  0  0  0  0
 15 37  1  0  0  0  0
 15 38  1  0  0  0  0
 18 39  1  0  0  0  0
 19 40  1  0  0  0  0
 20 41  1  0  0  0  0
 20 42  1  0  0  0  0
M  CHG  1  21  -1
M  END
$$$$
