
  -OEChem-07202109493D

 26 28  0     1  0  0  0  0  0999 V2000
    5.5198    0.0699    2.8126 C   0  0  0  0  0  0  0  0  0  0  0  0
    4.3729    0.3330    3.5617 C   0  0  0  0  0  0  0  0  0  0  0  0
    5.4168   -0.1810    1.4443 C   0  0  0  0  0  0  0  0  0  0  0  0
    3.1231    0.3452    2.9425 C   0  0  0  0  0  0  0  0  0  0  0  0
    4.1670   -0.1688    0.8252 C   0  0  0  0  0  0  0  0  0  0  0  0
    3.0201    0.0943    1.5742 C   0  0  0  0  0  0  0  0  0  0  0  0
   -0.4744    1.2819    0.4053 C   0  0  0  0  0  0  0  0  0  0  0  0
    1.7079    0.1070    0.9243 C   0  0  0  0  0  0  0  0  0  0  0  0
   -0.8517    0.1429   -0.1561 C   0  0  0  0  0  0  0  0  0  0  0  0
    0.0445   -1.0185   -0.2184 C   0  0  0  0  0  0  0  0  0  0  0  0
   -2.0677   -0.3312   -0.8339 C   0  0  0  0  0  0  0  0  0  0  0  0
    0.8951    1.4129    0.9851 C   0  0  1  0  0  0  0  0  0  0  0  0
    1.2816   -0.9783    0.3434 N   0  0  0  0  0  0  0  0  0  0  0  0
   -0.4864   -2.0486   -0.8314 N   0  0  0  0  0  0  0  0  0  0  0  0
   -3.1435    0.3471   -1.0169 N   0  0  0  0  0  0  0  0  0  0  0  0
   -1.7564   -1.6273   -1.2013 N   0  0  0  0  0  0  0  0  0  0  0  0
    1.7948    2.6429    0.0549 Cl  0  0  0  0  0  0  0  0  0  0  0  0
    6.4929    0.0605    3.2947 H   0  0  0  0  0  0  0  0  0  0  0  0
    4.4533    0.5282    4.6271 H   0  0  0  0  0  0  0  0  0  0  0  0
    6.3098   -0.3855    0.8610 H   0  0  0  0  0  0  0  0  0  0  0  0
    2.2359    0.5514    3.5357 H   0  0  0  0  0  0  0  0  0  0  0  0
    4.0987   -0.3658   -0.2416 H   0  0  0  0  0  0  0  0  0  0  0  0
   -1.1504    2.1302    0.4429 H   0  0  0  0  0  0  0  0  0  0  0  0
    0.8377    1.7475    2.0259 H   0  0  0  0  0  0  0  0  0  0  0  0
   -3.8310   -0.2285   -1.5168 H   0  0  0  0  0  0  0  0  0  0  0  0
   -2.3841   -2.2522   -1.6936 H   0  0  0  0  0  0  0  0  0  0  0  0
  1  2  1  0  0  0  0
  1  3  2  0  0  0  0
  2  4  2  0  0  0  0
  3  5  1  0  0  0  0
  4  6  1  0  0  0  0
  5  6  2  0  0  0  0
  6  8  1  0  0  0  0
  7  9  2  0  0  0  0
  7 12  1  0  0  0  0
  8 12  1  0  0  0  0
  8 13  2  0  0  0  0
  9 10  1  0  0  0  0
  9 11  1  0  0  0  0
 10 13  1  0  0  0  0
 10 14  2  0  0  0  0
 11 15  2  0  0  0  0
 11 16  1  0  0  0  0
 12 17  1  0  0  0  0
 14 16  1  0  0  0  0
  1 18  1  0  0  0  0
  2 19  1  0  0  0  0
  3 20  1  0  0  0  0
  4 21  1  0  0  0  0
  5 22  1  0  0  0  0
  7 23  1  0  0  0  0
 12 24  1  0  0  0  0
 15 25  1  0  0  0  0
 16 26  1  0  0  0  0
M  END
$$$$
