
  -OEChem-07202109493D

 47 49  0     0  0  0  0  0  0999 V2000
    5.5174   -2.2896   -2.0006 C   0  0  0  0  0  0  0  0  0  0  0  0
   -5.0338   -3.2263    5.7765 C   0  0  0  0  0  0  0  0  0  0  0  0
    4.4396   -1.7164   -1.3259 C   0  0  0  0  0  0  0  0  0  0  0  0
    1.8851   -1.0363   -0.1124 C   0  0  0  0  0  0  0  0  0  0  0  0
    2.8783   -1.6520    2.0022 C   0  0  0  0  0  0  0  0  0  0  0  0
    0.8066   -0.4630    0.5610 C   0  0  0  0  0  0  0  0  0  0  0  0
    1.7997   -1.0786    2.6757 C   0  0  0  0  0  0  0  0  0  0  0  0
   -4.1234   -2.5166    6.5595 C   0  0  0  0  0  0  0  0  0  0  0  0
    6.1952   -3.3722   -1.4401 C   0  0  0  0  0  0  0  0  0  0  0  0
   -5.1138   -2.9820    4.4055 C   0  0  0  0  0  0  0  0  0  0  0  0
    4.7175   -3.3082    0.4702 C   0  0  0  0  0  0  0  0  0  0  0  0
    2.9210   -1.6309    0.6081 C   0  0  0  0  0  0  0  0  0  0  0  0
    4.0396   -2.2257   -0.0904 C   0  0  0  0  0  0  0  0  0  0  0  0
    0.7638   -0.4841    1.9551 C   0  0  0  0  0  0  0  0  0  0  0  0
   -3.3730   -1.3181    4.6005 C   0  0  0  0  0  0  0  0  0  0  0  0
   -3.2930   -1.5625    5.9715 C   0  0  0  0  0  0  0  0  0  0  0  0
    5.7953   -3.8815   -0.2046 C   0  0  0  0  0  0  0  0  0  0  0  0
   -4.2834   -2.0279    3.8175 C   0  0  0  0  0  0  0  0  0  0  0  0
    7.9347   -4.4975    1.4678 C   0  0  0  0  0  0  0  0  0  0  0  0
   -0.3895    0.1286    2.6751 C   0  0  0  0  0  0  0  0  0  0  0  0
   -2.4640   -0.2845    4.0034 C   0  0  0  0  0  0  0  0  0  0  0  0
   -1.3381   -0.8743    3.2333 N   0  3  0  0  0  0  0  0  0  0  0  0
    5.7304   -5.9159    1.4052 O   0  0  0  0  0  0  0  0  0  0  0  0
    7.2918   -5.9897   -0.5703 O   0  0  0  0  0  0  0  0  0  0  0  0
   -2.4223   -0.8860    6.7338 F   0  0  0  0  0  0  0  0  0  0  0  0
    6.6429   -5.2382    0.4953 S   0  0  0  0  0  0  0  0  0  0  0  0
   -4.4125   -1.7528    2.1183 Cl  0  0  0  0  0  0  0  0  0  0  0  0
    5.8287   -1.8933   -2.9628 H   0  0  0  0  0  0  0  0  0  0  0  0
   -5.6804   -3.9685    6.2351 H   0  0  0  0  0  0  0  0  0  0  0  0
    3.9217   -0.8727   -1.7759 H   0  0  0  0  0  0  0  0  0  0  0  0
    1.9036   -1.0124   -1.1995 H   0  0  0  0  0  0  0  0  0  0  0  0
    3.6784   -2.1111    2.5780 H   0  0  0  0  0  0  0  0  0  0  0  0
    0.0034   -0.0030   -0.0085 H   0  0  0  0  0  0  0  0  0  0  0  0
    1.7748   -1.0991    3.7621 H   0  0  0  0  0  0  0  0  0  0  0  0
   -4.0611   -2.7068    7.6270 H   0  0  0  0  0  0  0  0  0  0  0  0
    7.0335   -3.8113   -1.9739 H   0  0  0  0  0  0  0  0  0  0  0  0
   -5.8286   -3.5435    3.8091 H   0  0  0  0  0  0  0  0  0  0  0  0
    4.4100   -3.7091    1.4339 H   0  0  0  0  0  0  0  0  0  0  0  0
    8.5110   -5.2950    1.9395 H   0  0  0  0  0  0  0  0  0  0  0  0
    8.5695   -3.9076    0.8050 H   0  0  0  0  0  0  0  0  0  0  0  0
    7.4740   -3.8600    2.2239 H   0  0  0  0  0  0  0  0  0  0  0  0
   -0.0572    0.7432    3.5229 H   0  0  0  0  0  0  0  0  0  0  0  0
   -0.9807    0.7771    2.0141 H   0  0  0  0  0  0  0  0  0  0  0  0
   -3.0078    0.3701    3.3139 H   0  0  0  0  0  0  0  0  0  0  0  0
   -2.0178    0.3459    4.7801 H   0  0  0  0  0  0  0  0  0  0  0  0
   -1.7156   -1.4430    2.4638 H   0  0  0  0  0  0  0  0  0  0  0  0
   -0.8196   -1.5261    3.8369 H   0  0  0  0  0  0  0  0  0  0  0  0
  1  3  1  0  0  0  0
  1  9  2  0  0  0  0
  2  8  1  0  0  0  0
  2 10  2  0  0  0  0
  3 13  2  0  0  0  0
  4  6  2  0  0  0  0
  4 12  1  0  0  0  0
  5  7  1  0  0  0  0
  5 12  2  0  0  0  0
  6 14  1  0  0  0  0
  7 14  2  0  0  0  0
  8 16  2  0  0  0  0
  9 17  1  0  0  0  0
 10 18  1  0  0  0  0
 11 13  1  0  0  0  0
 11 17  2  0  0  0  0
 12 13  1  0  0  0  0
 14 20  1  0  0  0  0
 15 16  1  0  0  0  0
 15 18  2  0  0  0  0
 15 21  1  0  0  0  0
 16 25  1  0  0  0  0
 17 26  1  0  0  0  0
 18 27  1  0  0  0  0
 19 26  1  0  0  0  0
 20 22  1  0  0  0  0
 21 22  1  0  0  0  0
 23 26  2  0  0  0  0
 24 26  2  0  0  0  0
  1 28  1  0  0  0  0
  2 29  1  0  0  0  0
  3 30  1  0  0  0  0
  4 31  1  0  0  0  0
  5 32  1  0  0  0  0
  6 33  1  0  0  0  0
  7 34  1  0  0  0  0
  8 35  1  0  0  0  0
  9 36  1  0  0  0  0
 10 37  1  0  0  0  0
 11 38  1  0  0  0  0
 19 39  1  0  0  0  0
 19 40  1  0  0  0  0
 19 41  1  0  0  0  0
 20 42  1  0  0  0  0
 20 43  1  0  0  0  0
 21 44  1  0  0  0  0
 21 45  1  0  0  0  0
 22 46  1  0  0  0  0
 22 47  1  0  0  0  0
M  CHG  1  22   1
M  END
$$$$
