
  -OEChem-07202109493D

 38 40  0     0  0  0  0  0  0999 V2000
    5.9054    3.6241   -4.0326 C   0  0  0  0  0  0  0  0  0  0  0  0
    5.5566    3.5146   -5.3863 C   0  0  0  0  0  0  0  0  0  0  0  0
    3.1852    3.9897   -4.9419 C   0  0  0  0  0  0  0  0  0  0  0  0
    4.8605    3.9183   -3.1646 C   0  0  0  0  0  0  0  0  0  0  0  0
    3.5463    4.0950   -3.6039 C   0  0  0  0  0  0  0  0  0  0  0  0
    4.2289    3.6931   -5.8301 C   0  0  0  0  0  0  0  0  0  0  0  0
    3.5875    4.3657   -1.3972 C   0  0  0  0  0  0  0  0  0  0  0  0
   -1.0189    0.9668   -2.4380 C   0  0  0  0  0  0  0  0  0  0  0  0
    0.4518    0.8634   -2.0475 C   0  0  0  0  0  0  0  0  0  0  0  0
   -1.6579    2.2390   -1.8908 C   0  0  0  0  0  0  0  0  0  0  0  0
    1.2361    2.1074   -2.4688 C   0  0  0  0  0  0  0  0  0  0  0  0
   -0.8807    3.4865   -2.3141 C   0  0  0  0  0  0  0  0  0  0  0  0
    0.6065    3.4027   -1.9336 C   0  0  0  0  0  0  0  0  0  0  0  0
    1.3682    4.6222   -2.4559 C   0  0  0  0  0  0  0  0  0  0  0  0
    4.8345    4.0952   -1.7964 N   0  0  0  0  0  0  0  0  0  0  0  0
    2.7989    4.3692   -2.4770 N   0  3  0  0  0  0  0  0  0  0  0  0
    3.2042    4.5954   -0.1126 N   0  0  0  0  0  0  0  0  0  0  0  0
    0.7231    3.3934   -0.5077 O   0  0  0  0  0  0  0  0  0  0  0  0
    3.8440    3.5276   -7.6782 Br  0  0  0  0  0  0  0  0  0  0  0  0
    6.9194    3.4899   -3.6790 H   0  0  0  0  0  0  0  0  0  0  0  0
    6.3436    3.2854   -6.1031 H   0  0  0  0  0  0  0  0  0  0  0  0
    2.1596    4.1313   -5.2583 H   0  0  0  0  0  0  0  0  0  0  0  0
   -1.1074    0.9554   -3.5314 H   0  0  0  0  0  0  0  0  0  0  0  0
   -1.5623    0.0914   -2.0647 H   0  0  0  0  0  0  0  0  0  0  0  0
    0.5338    0.7242   -0.9626 H   0  0  0  0  0  0  0  0  0  0  0  0
    0.8941   -0.0240   -2.5145 H   0  0  0  0  0  0  0  0  0  0  0  0
   -2.6917    2.3136   -2.2469 H   0  0  0  0  0  0  0  0  0  0  0  0
   -1.7036    2.1851   -0.7963 H   0  0  0  0  0  0  0  0  0  0  0  0
    2.2636    2.0066   -2.0973 H   0  0  0  0  0  0  0  0  0  0  0  0
    1.2872    2.1416   -3.5645 H   0  0  0  0  0  0  0  0  0  0  0  0
   -0.9810    3.6181   -3.3990 H   0  0  0  0  0  0  0  0  0  0  0  0
   -1.3446    4.3584   -1.8367 H   0  0  0  0  0  0  0  0  0  0  0  0
    1.1613    5.4840   -1.8192 H   0  0  0  0  0  0  0  0  0  0  0  0
    1.0276    4.8637   -3.4643 H   0  0  0  0  0  0  0  0  0  0  0  0
    5.6424    4.0285   -1.1831 H   0  0  0  0  0  0  0  0  0  0  0  0
    3.8669    4.5278    0.6670 H   0  0  0  0  0  0  0  0  0  0  0  0
    2.2216    4.7514    0.1359 H   0  0  0  0  0  0  0  0  0  0  0  0
    0.3202    4.2174   -0.1978 H   0  0  0  0  0  0  0  0  0  0  0  0
  1  2  1  0  0  0  0
  1  4  2  0  0  0  0
  2  6  2  0  0  0  0
  3  5  2  0  0  0  0
  3  6  1  0  0  0  0
  4  5  1  0  0  0  0
  4 15  1  0  0  0  0
  5 16  1  0  0  0  0
  6 19  1  0  0  0  0
  7 15  1  0  0  0  0
  7 16  2  0  0  0  0
  7 17  1  0  0  0  0
  8  9  1  0  0  0  0
  8 10  1  0  0  0  0
  9 11  1  0  0  0  0
 10 12  1  0  0  0  0
 11 13  1  0  0  0  0
 12 13  1  0  0  0  0
 13 14  1  0  0  0  0
 13 18  1  0  0  0  0
 14 16  1  0  0  0  0
  1 20  1  0  0  0  0
  2 21  1  0  0  0  0
  3 22  1  0  0  0  0
  8 23  1  0  0  0  0
  8 24  1  0  0  0  0
  9 25  1  0  0  0  0
  9 26  1  0  0  0  0
 10 27  1  0  0  0  0
 10 28  1  0  0  0  0
 11 29  1  0  0  0  0
 11 30  1  0  0  0  0
 12 31  1  0  0  0  0
 12 32  1  0  0  0  0
 14 33  1  0  0  0  0
 14 34  1  0  0  0  0
 15 35  1  0  0  0  0
 17 36  1  0  0  0  0
 17 37  1  0  0  0  0
 18 38  1  0  0  0  0
M  CHG  1  16   1
M  END
$$$$
