
  -OEChem-07202109483D

 46 49  0     0  0  0  0  0  0999 V2000
   -0.6202    2.3620    8.5611 C   0  0  0  0  0  0  0  0  0  0  0  0
   -1.4268    1.7204    7.6183 C   0  0  0  0  0  0  0  0  0  0  0  0
    0.7475    2.0754    8.6549 C   0  0  0  0  0  0  0  0  0  0  0  0
   -0.8984    0.7717    6.7366 C   0  0  0  0  0  0  0  0  0  0  0  0
    3.9118    0.7061   12.9430 C   0  0  0  0  0  0  0  0  0  0  0  0
    2.0238   -0.4832   13.6337 C   0  0  0  0  0  0  0  0  0  0  0  0
    4.8494   -1.5964   10.3008 C   0  0  0  0  0  0  0  0  0  0  0  0
    3.2825   -0.5155   13.0691 C   0  0  0  0  0  0  0  0  0  0  0  0
    3.8597   -2.0460   11.1510 C   0  0  0  0  0  0  0  0  0  0  0  0
    1.2951    1.1247    7.7770 C   0  0  0  0  0  0  0  0  0  0  0  0
    0.4660    0.5022    6.8481 C   0  0  0  0  0  0  0  0  0  0  0  0
    2.8161   -2.7190   10.5493 C   0  0  0  0  0  0  0  0  0  0  0  0
    2.5536   -0.2125    6.6873 C   0  0  0  0  0  0  0  0  0  0  0  0
    2.1326    1.7750   13.8699 C   0  0  0  0  0  0  0  0  0  0  0  0
    3.7611   -2.4544    8.4989 C   0  0  0  0  0  0  0  0  0  0  0  0
    0.9099   -1.2268    5.0847 C   0  0  0  0  0  0  0  0  0  0  0  0
    2.2990    4.1365   14.0970 C   0  0  0  0  0  0  0  0  0  0  0  0
    3.9321   -1.8105   12.6153 C   0  0  0  0  0  0  0  0  0  0  0  0
    3.7030   -0.9911    6.1820 C   0  0  0  0  0  0  0  0  0  0  0  0
    3.3641    1.8754   13.3343 N   0  0  0  0  0  0  0  0  0  0  0  0
    1.4164    0.6484   14.0470 N   0  0  0  0  0  0  0  0  0  0  0  0
    4.8320   -1.7839    8.9648 N   0  0  0  0  0  0  0  0  0  0  0  0
    2.5881    0.6682    7.6620 N   0  0  0  0  0  0  0  0  0  0  0  0
    2.7342   -2.9418    9.2211 N   0  0  0  0  0  0  0  0  0  0  0  0
    1.2974   -0.3478    6.1649 N   0  0  0  0  0  0  0  0  0  0  0  0
    1.7870   -3.2024   11.3138 O   0  0  0  0  0  0  0  0  0  0  0  0
    1.5438    2.9479   14.2817 O   0  0  0  0  0  0  0  0  0  0  0  0
    3.6961   -2.7227    6.7558 S   0  0  0  0  0  0  0  0  0  0  0  0
   -1.0596    3.0958    9.2319 H   0  0  0  0  0  0  0  0  0  0  0  0
   -2.4857    1.9623    7.5683 H   0  0  0  0  0  0  0  0  0  0  0  0
    1.3654    2.5801    9.3904 H   0  0  0  0  0  0  0  0  0  0  0  0
   -1.5250    0.2748    6.0045 H   0  0  0  0  0  0  0  0  0  0  0  0
    4.9040    0.7880   12.5106 H   0  0  0  0  0  0  0  0  0  0  0  0
    1.4460   -1.3910   13.7770 H   0  0  0  0  0  0  0  0  0  0  0  0
    5.7132   -1.0558   10.6746 H   0  0  0  0  0  0  0  0  0  0  0  0
    1.0251   -0.6786    4.1459 H   0  0  0  0  0  0  0  0  0  0  0  0
    1.5490   -2.1141    5.0903 H   0  0  0  0  0  0  0  0  0  0  0  0
   -0.1304   -1.5338    5.2242 H   0  0  0  0  0  0  0  0  0  0  0  0
    1.7266    4.9931   14.4611 H   0  0  0  0  0  0  0  0  0  0  0  0
    2.5282    4.2624   13.0358 H   0  0  0  0  0  0  0  0  0  0  0  0
    3.2308    4.0570   14.6620 H   0  0  0  0  0  0  0  0  0  0  0  0
    4.9824   -1.8180   12.9635 H   0  0  0  0  0  0  0  0  0  0  0  0
    3.4720   -2.6490   13.1716 H   0  0  0  0  0  0  0  0  0  0  0  0
    3.7308   -1.0032    5.0773 H   0  0  0  0  0  0  0  0  0  0  0  0
    4.6629   -0.5400    6.4921 H   0  0  0  0  0  0  0  0  0  0  0  0
    1.1392   -3.6456   10.7483 H   0  0  0  0  0  0  0  0  0  0  0  0
  1  2  1  0  0  0  0
  1  3  2  0  0  0  0
  2  4  2  0  0  0  0
  3 10  1  0  0  0  0
  4 11  1  0  0  0  0
  5  8  1  0  0  0  0
  5 20  2  0  0  0  0
  6  8  2  0  0  0  0
  6 21  1  0  0  0  0
  7  9  1  0  0  0  0
  7 22  2  0  0  0  0
  8 18  1  0  0  0  0
  9 12  2  0  0  0  0
  9 18  1  0  0  0  0
 10 11  2  0  0  0  0
 10 23  1  0  0  0  0
 11 25  1  0  0  0  0
 12 24  1  0  0  0  0
 12 26  1  0  0  0  0
 13 19  1  0  0  0  0
 13 23  2  0  0  0  0
 13 25  1  0  0  0  0
 14 20  1  0  0  0  0
 14 21  2  0  0  0  0
 14 27  1  0  0  0  0
 15 22  1  0  0  0  0
 15 24  2  0  0  0  0
 15 28  1  0  0  0  0
 16 25  1  0  0  0  0
 17 27  1  0  0  0  0
 19 28  1  0  0  0  0
  1 29  1  0  0  0  0
  2 30  1  0  0  0  0
  3 31  1  0  0  0  0
  4 32  1  0  0  0  0
  5 33  1  0  0  0  0
  6 34  1  0  0  0  0
  7 35  1  0  0  0  0
 16 36  1  0  0  0  0
 16 37  1  0  0  0  0
 16 38  1  0  0  0  0
 17 39  1  0  0  0  0
 17 40  1  0  0  0  0
 17 41  1  0  0  0  0
 18 42  1  0  0  0  0
 18 43  1  0  0  0  0
 19 44  1  0  0  0  0
 19 45  1  0  0  0  0
 26 46  1  0  0  0  0
M  END
$$$$
