
  -OEChem-07202109493D

 42 43  0     0  0  0  0  0  0999 V2000
   -2.1301   -2.6655   -3.0551 C   0  0  0  0  0  0  0  0  0  0  0  0
   -3.2616   -2.0693   -1.0054 C   0  0  0  0  0  0  0  0  0  0  0  0
   -2.4013   -1.7356   -2.0514 C   0  0  0  0  0  0  0  0  0  0  0  0
   -2.7193   -3.9291   -3.0129 C   0  0  0  0  0  0  0  0  0  0  0  0
   -3.8508   -3.3330   -0.9631 C   0  0  0  0  0  0  0  0  0  0  0  0
   -3.5796   -4.2629   -1.9668 C   0  0  0  0  0  0  0  0  0  0  0  0
   -3.5126    1.4298   -1.7847 C   0  0  0  0  0  0  0  0  0  0  0  0
   -2.7055    0.6883   -2.5606 C   0  0  0  0  0  0  0  0  0  0  0  0
   -2.8181    1.0134   -3.9997 C   0  0  0  0  0  0  0  0  0  0  0  0
   -4.4193    2.6245   -3.4565 C   0  0  0  0  0  0  0  0  0  0  0  0
   -2.4166   -4.9110   -4.0965 C   0  0  0  0  0  0  0  0  0  0  0  0
   -4.9115   -2.4751    1.1546 C   0  0  0  0  0  0  0  0  0  0  0  0
   -4.2387   -4.8941    0.9758 C   0  0  0  0  0  0  0  0  0  0  0  0
   -6.2292   -4.0475   -0.2500 C   0  0  0  0  0  0  0  0  0  0  0  0
   -1.7654   -0.3704   -2.0972 C   0  0  0  0  0  0  0  0  0  0  0  0
   -4.7687   -3.6719    0.1649 C   0  0  0  0  0  0  0  0  0  0  0  0
   -4.3837    2.4000   -2.1400 N   0  5  0  0  0  0  0  0  0  0  0  0
   -3.7062    2.0005   -4.3562 N   0  0  0  0  0  0  0  0  0  0  0  0
   -2.1327    0.4228   -4.9209 N   0  0  0  0  0  0  0  0  0  0  0  0
   -5.3099    3.6108   -3.7872 N   0  0  0  0  0  0  0  0  0  0  0  0
   -4.1551   -5.4988   -1.9252 O   0  0  0  0  0  0  0  0  0  0  0  0
   -1.4597   -2.4048   -3.8708 H   0  0  0  0  0  0  0  0  0  0  0  0
   -3.4705   -1.3445   -0.2219 H   0  0  0  0  0  0  0  0  0  0  0  0
   -3.4406    1.2021   -0.7202 H   0  0  0  0  0  0  0  0  0  0  0  0
   -1.5417   -5.5147   -3.8286 H   0  0  0  0  0  0  0  0  0  0  0  0
   -3.2654   -5.5838   -4.2705 H   0  0  0  0  0  0  0  0  0  0  0  0
   -2.2126   -4.4022   -5.0469 H   0  0  0  0  0  0  0  0  0  0  0  0
   -5.5812   -2.6980    1.9934 H   0  0  0  0  0  0  0  0  0  0  0  0
   -3.9444   -2.1912    1.5841 H   0  0  0  0  0  0  0  0  0  0  0  0
   -5.3105   -1.5968    0.6334 H   0  0  0  0  0  0  0  0  0  0  0  0
   -4.9084   -5.1472    1.8049 H   0  0  0  0  0  0  0  0  0  0  0  0
   -4.1350   -5.7960    0.3612 H   0  0  0  0  0  0  0  0  0  0  0  0
   -3.2553   -4.6677    1.4046 H   0  0  0  0  0  0  0  0  0  0  0  0
   -6.8636   -4.2878    0.6117 H   0  0  0  0  0  0  0  0  0  0  0  0
   -6.7098   -3.2180   -0.7818 H   0  0  0  0  0  0  0  0  0  0  0  0
   -6.2348   -4.9242   -0.9081 H   0  0  0  0  0  0  0  0  0  0  0  0
   -1.3865   -0.1122   -1.1003 H   0  0  0  0  0  0  0  0  0  0  0  0
   -0.8873   -0.3884   -2.7542 H   0  0  0  0  0  0  0  0  0  0  0  0
   -2.3833    0.8177   -5.8324 H   0  0  0  0  0  0  0  0  0  0  0  0
   -5.8228    4.0480   -3.0562 H   0  0  0  0  0  0  0  0  0  0  0  0
   -5.4110    3.8536   -4.7460 H   0  0  0  0  0  0  0  0  0  0  0  0
   -3.8692   -6.0256   -2.6872 H   0  0  0  0  0  0  0  0  0  0  0  0
  1  3  2  0  0  0  0
  1  4  1  0  0  0  0
  2  3  1  0  0  0  0
  2  5  2  0  0  0  0
  3 15  1  0  0  0  0
  4  6  2  0  0  0  0
  4 11  1  0  0  0  0
  5  6  1  0  0  0  0
  5 16  1  0  0  0  0
  6 21  1  0  0  0  0
  7  8  2  0  0  0  0
  7 17  1  0  0  0  0
  8  9  1  0  0  0  0
  8 15  1  0  0  0  0
  9 18  1  0  0  0  0
  9 19  2  0  0  0  0
 10 17  1  0  0  0  0
 10 18  2  0  0  0  0
 10 20  1  0  0  0  0
 12 16  1  0  0  0  0
 13 16  1  0  0  0  0
 14 16  1  0  0  0  0
  1 22  1  0  0  0  0
  2 23  1  0  0  0  0
  7 24  1  0  0  0  0
 11 25  1  0  0  0  0
 11 26  1  0  0  0  0
 11 27  1  0  0  0  0
 12 28  1  0  0  0  0
 12 29  1  0  0  0  0
 12 30  1  0  0  0  0
 13 31  1  0  0  0  0
 13 32  1  0  0  0  0
 13 33  1  0  0  0  0
 14 34  1  0  0  0  0
 14 35  1  0  0  0  0
 14 36  1  0  0  0  0
 15 37  1  0  0  0  0
 15 38  1  0  0  0  0
 19 39  1  0  0  0  0
 20 40  1  0  0  0  0
 20 41  1  0  0  0  0
 21 42  1  0  0  0  0
M  CHG  1  17  -1
M  END
$$$$
