
  -OEChem-07202109493D

 26 28  0     0  0  0  0  0  0999 V2000
    4.4994   -3.8632   -1.6786 C   0  0  0  0  0  0  0  0  0  0  0  0
    4.8154   -2.6451   -1.0768 C   0  0  0  0  0  0  0  0  0  0  0  0
    3.1704   -4.1759   -1.9645 C   0  0  0  0  0  0  0  0  0  0  0  0
    3.8024   -1.7398   -0.7610 C   0  0  0  0  0  0  0  0  0  0  0  0
    2.1574   -3.2705   -1.6486 C   0  0  0  0  0  0  0  0  0  0  0  0
    2.4734   -2.0525   -1.0469 C   0  0  0  0  0  0  0  0  0  0  0  0
    1.4159   -1.1081   -0.7174 C   0  0  0  0  0  0  0  0  0  0  0  0
   -0.6082    0.5555    0.1630 C   0  0  0  0  0  0  0  0  0  0  0  0
    0.9959   -0.1542   -1.5846 C   0  0  0  0  0  0  0  0  0  0  0  0
   -0.1625   -0.3990    0.9875 C   0  0  0  0  0  0  0  0  0  0  0  0
   -1.6273    1.1819    0.9755 C   0  0  0  0  0  0  0  0  0  0  0  0
   -0.1143    0.8197   -1.2117 C   0  0  0  0  0  0  0  0  0  0  0  0
   -0.8234   -0.3832    2.1894 N   0  0  0  0  0  0  0  0  0  0  0  0
   -1.6833    0.5391    2.1918 N   0  0  0  0  0  0  0  0  0  0  0  0
   -2.3838    2.1726    0.6685 N   0  0  0  0  0  0  0  0  0  0  0  0
    0.8488   -1.2284    0.5448 N   0  0  0  0  0  0  0  0  0  0  0  0
    1.6531    0.0578   -3.1690 Cl  0  0  0  0  0  0  0  0  0  0  0  0
    5.2882   -4.5676   -1.9257 H   0  0  0  0  0  0  0  0  0  0  0  0
    5.8503   -2.4010   -0.8551 H   0  0  0  0  0  0  0  0  0  0  0  0
    2.9244   -5.1238   -2.4341 H   0  0  0  0  0  0  0  0  0  0  0  0
    4.0643   -0.7943   -0.2920 H   0  0  0  0  0  0  0  0  0  0  0  0
    1.1263   -3.5288   -1.8778 H   0  0  0  0  0  0  0  0  0  0  0  0
   -0.9432    0.7189   -1.9219 H   0  0  0  0  0  0  0  0  0  0  0  0
    0.2637    1.8468   -1.2704 H   0  0  0  0  0  0  0  0  0  0  0  0
   -3.0066    2.3870    1.4565 H   0  0  0  0  0  0  0  0  0  0  0  0
    1.1837   -1.9498    1.1715 H   0  0  0  0  0  0  0  0  0  0  0  0
  1  2  1  0  0  0  0
  1  3  2  0  0  0  0
  2  4  2  0  0  0  0
  3  5  1  0  0  0  0
  4  6  1  0  0  0  0
  5  6  2  0  0  0  0
  6  7  1  0  0  0  0
  7  9  2  0  0  0  0
  7 16  1  0  0  0  0
  8 10  2  0  0  0  0
  8 11  1  0  0  0  0
  8 12  1  0  0  0  0
  9 12  1  0  0  0  0
  9 17  1  0  0  0  0
 10 13  1  0  0  0  0
 10 16  1  0  0  0  0
 11 14  1  0  0  0  0
 11 15  2  0  0  0  0
 13 14  2  0  0  0  0
  1 18  1  0  0  0  0
  2 19  1  0  0  0  0
  3 20  1  0  0  0  0
  4 21  1  0  0  0  0
  5 22  1  0  0  0  0
 12 23  1  0  0  0  0
 12 24  1  0  0  0  0
 15 25  1  0  0  0  0
 16 26  1  0  0  0  0
M  END
$$$$
