
  -OEChem-07202109493D

 32 33  0     1  0  0  0  0  0999 V2000
   -5.2265    1.5074    4.6856 C   0  0  0  0  0  0  0  0  0  0  0  0
   -4.4042    0.4537    4.2200 C   0  0  0  0  0  0  0  0  0  0  0  0
   -5.1825    2.4829    3.7169 C   0  0  0  0  0  0  0  0  0  0  0  0
   -3.9165    0.8604    2.9998 C   0  0  0  0  0  0  0  0  0  0  0  0
    0.1984    1.3204    0.4940 C   0  0  0  0  0  0  0  0  0  0  0  0
   -0.3413   -1.1859   -0.7567 C   0  0  0  0  0  0  0  0  0  0  0  0
   -1.2659   -0.7247    0.0995 C   0  0  0  0  0  0  0  0  0  0  0  0
    1.0966    0.8258   -0.3654 C   0  0  0  0  0  0  0  0  0  0  0  0
   -1.0304    0.5543    0.8337 C   0  0  0  0  0  0  0  0  0  0  0  0
   -2.4723   -1.5485    0.2422 C   0  0  0  0  0  0  0  0  0  0  0  0
    0.9576   -0.4977   -1.0454 C   0  0  1  0  0  0  0  0  0  0  0  0
   -3.0010    0.2208    1.9938 C   0  0  0  0  0  0  0  0  0  0  0  0
   -1.8291    1.0401    1.7307 N   0  0  0  0  0  0  0  0  0  0  0  0
    1.9025   -2.9593   -1.3601 N   0  0  0  0  0  0  0  0  0  0  0  0
   -2.6007   -2.4440    1.0548 O   0  0  0  0  0  0  0  0  0  0  0  0
    3.5059   -1.0248   -0.8091 O   0  0  0  0  0  0  0  0  0  0  0  0
    1.9152   -1.8625    0.9667 O   0  0  0  0  0  0  0  0  0  0  0  0
   -4.3862    2.0962    2.6858 O   0  0  0  0  0  0  0  0  0  0  0  0
   -3.3947   -1.1551   -0.6594 O   0  0  0  0  0  0  0  0  0  0  0  0
    2.2197   -1.5729   -0.4218 S   0  0  0  0  0  0  0  0  0  0  0  0
    2.4666    1.7891   -0.8109 Cl  0  0  0  0  0  0  0  0  0  0  0  0
   -5.7814    1.5507    5.6115 H   0  0  0  0  0  0  0  0  0  0  0  0
   -4.1949   -0.4839    4.7149 H   0  0  0  0  0  0  0  0  0  0  0  0
   -5.6373    3.4575    3.6164 H   0  0  0  0  0  0  0  0  0  0  0  0
    0.3236    2.2919    0.9616 H   0  0  0  0  0  0  0  0  0  0  0  0
   -0.5162   -2.1137   -1.2990 H   0  0  0  0  0  0  0  0  0  0  0  0
    1.0969   -0.4066   -2.1271 H   0  0  0  0  0  0  0  0  0  0  0  0
   -2.6840   -0.7673    2.3474 H   0  0  0  0  0  0  0  0  0  0  0  0
   -3.5368    0.0515    1.0529 H   0  0  0  0  0  0  0  0  0  0  0  0
    2.5754   -3.2037   -2.0970 H   0  0  0  0  0  0  0  0  0  0  0  0
    1.4919   -3.7740   -0.8876 H   0  0  0  0  0  0  0  0  0  0  0  0
   -4.2179   -1.6847   -0.5945 H   0  0  0  0  0  0  0  0  0  0  0  0
  1  2  1  0  0  0  0
  1  3  2  0  0  0  0
  2  4  2  0  0  0  0
  3 18  1  0  0  0  0
  4 12  1  0  0  0  0
  4 18  1  0  0  0  0
  5  8  2  0  0  0  0
  5  9  1  0  0  0  0
  6  7  2  0  0  0  0
  6 11  1  0  0  0  0
  7  9  1  0  0  0  0
  7 10  1  0  0  0  0
  8 11  1  0  0  0  0
  8 21  1  0  0  0  0
  9 13  2  0  0  0  0
 10 15  2  0  0  0  0
 10 19  1  0  0  0  0
 11 20  1  0  0  0  0
 12 13  1  0  0  0  0
 14 20  1  0  0  0  0
 16 20  2  0  0  0  0
 17 20  2  0  0  0  0
  1 22  1  0  0  0  0
  2 23  1  0  0  0  0
  3 24  1  0  0  0  0
  5 25  1  0  0  0  0
  6 26  1  0  0  0  0
 11 27  1  0  0  0  0
 12 28  1  0  0  0  0
 12 29  1  0  0  0  0
 14 30  1  0  0  0  0
 14 31  1  0  0  0  0
 19 32  1  0  0  0  0
M  END
$$$$
