
  -OEChem-07202109493D

 42 43  0     0  0  0  0  0  0999 V2000
   -1.8248   -2.4936   -3.5668 C   0  0  0  0  0  0  0  0  0  0  0  0
   -2.7774   -2.4684   -1.3468 C   0  0  0  0  0  0  0  0  0  0  0  0
   -2.0882   -1.8222   -2.3729 C   0  0  0  0  0  0  0  0  0  0  0  0
   -2.2507   -3.8112   -3.7347 C   0  0  0  0  0  0  0  0  0  0  0  0
   -3.2033   -3.7861   -1.5145 C   0  0  0  0  0  0  0  0  0  0  0  0
   -2.9399   -4.4574   -2.7085 C   0  0  0  0  0  0  0  0  0  0  0  0
   -3.4952    0.9547   -1.1214 C   0  0  0  0  0  0  0  0  0  0  0  0
   -2.7399    0.5864   -2.3390 C   0  0  0  0  0  0  0  0  0  0  0  0
   -3.1655    1.2098   -3.4667 C   0  0  0  0  0  0  0  0  0  0  0  0
   -4.8542    2.3820   -2.2680 C   0  0  0  0  0  0  0  0  0  0  0  0
   -1.9591   -4.5133   -5.0200 C   0  0  0  0  0  0  0  0  0  0  0  0
   -4.1094   -3.5099    0.8197 C   0  0  0  0  0  0  0  0  0  0  0  0
   -3.1784   -5.7308    0.0868 C   0  0  0  0  0  0  0  0  0  0  0  0
   -5.3825   -4.9497   -0.7577 C   0  0  0  0  0  0  0  0  0  0  0  0
   -1.6290   -0.3999   -2.1918 C   0  0  0  0  0  0  0  0  0  0  0  0
   -3.9393   -4.4612   -0.4044 C   0  0  0  0  0  0  0  0  0  0  0  0
   -4.1896    2.1063   -3.5506 N   0  5  0  0  0  0  0  0  0  0  0  0
   -4.4778    1.7937   -1.1088 N   0  0  0  0  0  0  0  0  0  0  0  0
   -2.6250    1.0292   -4.6985 N   0  5  0  0  0  0  0  0  0  0  0  0
   -5.8109    3.1912   -2.2205 N   0  3  0  0  0  0  0  0  0  0  0  0
   -3.3556   -5.7461   -2.8724 O   0  0  0  0  0  0  0  0  0  0  0  0
   -1.2878   -1.9893   -4.3669 H   0  0  0  0  0  0  0  0  0  0  0  0
   -2.9800   -1.9450   -0.4152 H   0  0  0  0  0  0  0  0  0  0  0  0
   -3.1802    0.4701   -0.1834 H   0  0  0  0  0  0  0  0  0  0  0  0
   -0.9938   -5.0292   -4.9607 H   0  0  0  0  0  0  0  0  0  0  0  0
   -2.7362   -5.2515   -5.2537 H   0  0  0  0  0  0  0  0  0  0  0  0
   -1.9271   -3.8071   -5.8591 H   0  0  0  0  0  0  0  0  0  0  0  0
   -4.6475   -3.9819    1.6500 H   0  0  0  0  0  0  0  0  0  0  0  0
   -3.1403   -3.1822    1.2116 H   0  0  0  0  0  0  0  0  0  0  0  0
   -4.6670   -2.6119    0.5282 H   0  0  0  0  0  0  0  0  0  0  0  0
   -3.7140   -6.2303    0.9014 H   0  0  0  0  0  0  0  0  0  0  0  0
   -3.0390   -6.4736   -0.7075 H   0  0  0  0  0  0  0  0  0  0  0  0
   -2.1864   -5.4565    0.4647 H   0  0  0  0  0  0  0  0  0  0  0  0
   -5.8811   -5.4380    0.0883 H   0  0  0  0  0  0  0  0  0  0  0  0
   -6.0160   -4.1084   -1.0623 H   0  0  0  0  0  0  0  0  0  0  0  0
   -5.3589   -5.6748   -1.5795 H   0  0  0  0  0  0  0  0  0  0  0  0
   -1.1719   -0.2863   -1.2018 H   0  0  0  0  0  0  0  0  0  0  0  0
   -0.8404   -0.1638   -2.9153 H   0  0  0  0  0  0  0  0  0  0  0  0
   -1.9310    0.2966   -4.6106 H   0  0  0  0  0  0  0  0  0  0  0  0
   -6.1787    3.6988   -3.0588 H   0  0  0  0  0  0  0  0  0  0  0  0
   -6.3228    3.4279   -1.3387 H   0  0  0  0  0  0  0  0  0  0  0  0
   -3.0981   -6.0707   -3.7489 H   0  0  0  0  0  0  0  0  0  0  0  0
  1  3  2  0  0  0  0
  1  4  1  0  0  0  0
  2  3  1  0  0  0  0
  2  5  2  0  0  0  0
  3 15  1  0  0  0  0
  4  6  2  0  0  0  0
  4 11  1  0  0  0  0
  5  6  1  0  0  0  0
  5 16  1  0  0  0  0
  6 21  1  0  0  0  0
  7  8  1  0  0  0  0
  7 18  2  0  0  0  0
  8  9  2  0  0  0  0
  8 15  1  0  0  0  0
  9 17  1  0  0  0  0
  9 19  1  0  0  0  0
 10 17  1  0  0  0  0
 10 18  1  0  0  0  0
 10 20  2  0  0  0  0
 12 16  1  0  0  0  0
 13 16  1  0  0  0  0
 14 16  1  0  0  0  0
  1 22  1  0  0  0  0
  2 23  1  0  0  0  0
  7 24  1  0  0  0  0
 11 25  1  0  0  0  0
 11 26  1  0  0  0  0
 11 27  1  0  0  0  0
 12 28  1  0  0  0  0
 12 29  1  0  0  0  0
 12 30  1  0  0  0  0
 13 31  1  0  0  0  0
 13 32  1  0  0  0  0
 13 33  1  0  0  0  0
 14 34  1  0  0  0  0
 14 35  1  0  0  0  0
 14 36  1  0  0  0  0
 15 37  1  0  0  0  0
 15 38  1  0  0  0  0
 19 39  1  0  0  0  0
 20 40  1  0  0  0  0
 20 41  1  0  0  0  0
 21 42  1  0  0  0  0
M  CHG  3  17  -1  19  -1  20   1
M  END
$$$$
