
  -OEChem-07202109483D

 36 38  0     0  0  0  0  0  0999 V2000
    2.1370   -3.2099   -3.2992 C   0  0  0  0  0  0  0  0  0  0  0  0
    0.8529   -3.7608   -3.2031 C   0  0  0  0  0  0  0  0  0  0  0  0
   -0.1021   -1.6029   -2.5975 C   0  0  0  0  0  0  0  0  0  0  0  0
    2.2992   -1.8383   -3.0406 C   0  0  0  0  0  0  0  0  0  0  0  0
    1.1857   -1.0759   -2.6992 C   0  0  0  0  0  0  0  0  0  0  0  0
   -0.2454   -2.9697   -2.8584 C   0  0  0  0  0  0  0  0  0  0  0  0
    3.0288    0.1469   -2.7472 C   0  0  0  0  0  0  0  0  0  0  0  0
    1.1524    0.4705    0.1995 C   0  0  0  0  0  0  0  0  0  0  0  0
   -0.0155    2.6622   -0.1843 C   0  0  0  0  0  0  0  0  0  0  0  0
    1.1770    0.8268    1.6837 C   0  0  0  0  0  0  0  0  0  0  0  0
    0.0788    2.8930    1.3215 C   0  0  0  0  0  0  0  0  0  0  0  0
    1.1027    1.7311   -0.6743 C   0  0  0  0  0  0  0  0  0  0  0  0
    0.9132    1.3670   -2.1464 C   0  0  0  0  0  0  0  0  0  0  0  0
    3.4350   -1.0618   -3.0653 N   0  0  0  0  0  0  0  0  0  0  0  0
    1.6818    0.1895   -2.5173 N   0  0  0  0  0  0  0  0  0  0  0  0
    3.9242    1.2917   -2.6558 N   0  3  0  0  0  0  0  0  0  0  0  0
    0.0637    1.6515    2.0245 O   0  0  0  0  0  0  0  0  0  0  0  0
    2.3584    2.4046   -0.5473 O   0  0  0  0  0  0  0  0  0  0  0  0
   -1.9623   -3.7594   -2.7392 Br  0  0  0  0  0  0  0  0  0  0  0  0
    2.9840   -3.8328   -3.5679 H   0  0  0  0  0  0  0  0  0  0  0  0
    0.7284   -4.8227   -3.4038 H   0  0  0  0  0  0  0  0  0  0  0  0
   -0.9465   -0.9768   -2.3288 H   0  0  0  0  0  0  0  0  0  0  0  0
    2.0378   -0.1311   -0.0370 H   0  0  0  0  0  0  0  0  0  0  0  0
    0.2633   -0.1415    0.0014 H   0  0  0  0  0  0  0  0  0  0  0  0
   -0.9881    2.2064   -0.4089 H   0  0  0  0  0  0  0  0  0  0  0  0
    0.0305    3.6305   -0.6962 H   0  0  0  0  0  0  0  0  0  0  0  0
    1.1110   -0.0863    2.2839 H   0  0  0  0  0  0  0  0  0  0  0  0
    2.1076    1.3355    1.9619 H   0  0  0  0  0  0  0  0  0  0  0  0
    0.9820    3.4540    1.5886 H   0  0  0  0  0  0  0  0  0  0  0  0
   -0.7824    3.4777    1.6605 H   0  0  0  0  0  0  0  0  0  0  0  0
    1.2267    2.1975   -2.7836 H   0  0  0  0  0  0  0  0  0  0  0  0
   -0.1413    1.1688   -2.3531 H   0  0  0  0  0  0  0  0  0  0  0  0
    4.0432    1.7094   -3.5850 H   0  0  0  0  0  0  0  0  0  0  0  0
    3.5443    2.0004   -2.0193 H   0  0  0  0  0  0  0  0  0  0  0  0
    4.8386    0.9891   -2.3031 H   0  0  0  0  0  0  0  0  0  0  0  0
    2.3005    3.1931   -1.1063 H   0  0  0  0  0  0  0  0  0  0  0  0
  1  2  1  0  0  0  0
  1  4  2  0  0  0  0
  2  6  2  0  0  0  0
  3  5  2  0  0  0  0
  3  6  1  0  0  0  0
  4  5  1  0  0  0  0
  4 14  1  0  0  0  0
  5 15  1  0  0  0  0
  6 19  1  0  0  0  0
  7 14  2  0  0  0  0
  7 15  1  0  0  0  0
  7 16  1  0  0  0  0
  8 10  1  0  0  0  0
  8 12  1  0  0  0  0
  9 11  1  0  0  0  0
  9 12  1  0  0  0  0
 10 17  1  0  0  0  0
 11 17  1  0  0  0  0
 12 13  1  0  0  0  0
 12 18  1  0  0  0  0
 13 15  1  0  0  0  0
  1 20  1  0  0  0  0
  2 21  1  0  0  0  0
  3 22  1  0  0  0  0
  8 23  1  0  0  0  0
  8 24  1  0  0  0  0
  9 25  1  0  0  0  0
  9 26  1  0  0  0  0
 10 27  1  0  0  0  0
 10 28  1  0  0  0  0
 11 29  1  0  0  0  0
 11 30  1  0  0  0  0
 13 31  1  0  0  0  0
 13 32  1  0  0  0  0
 16 33  1  0  0  0  0
 16 34  1  0  0  0  0
 16 35  1  0  0  0  0
 18 36  1  0  0  0  0
M  CHG  1  16   1
M  END
$$$$
