
  -OEChem-07202109493D

 18 19  0     0  0  0  0  0  0999 V2000
   -0.3862    0.1803    1.0001 C   0  0  0  0  0  0  0  0  0  0  0  0
   -1.5128   -0.5251    1.4379 C   0  0  0  0  0  0  0  0  0  0  0  0
   -0.2252    1.3626    3.1155 C   0  0  0  0  0  0  0  0  0  0  0  0
   -1.3539    0.6571    3.5562 C   0  0  0  0  0  0  0  0  0  0  0  0
    0.2482    1.1093    1.8244 C   0  0  0  0  0  0  0  0  0  0  0  0
   -1.9840   -0.2678    2.7329 C   0  0  0  0  0  0  0  0  0  0  0  0
   -3.0087    0.0020    4.9658 C   0  0  0  0  0  0  0  0  0  0  0  0
   -3.8186   -0.0515    6.1901 C   0  0  0  0  0  0  0  0  0  0  0  0
   -1.9586    0.7732    4.7874 N   0  3  0  0  0  0  0  0  0  0  0  0
    1.2788    1.7391    1.3950 O   0  5  0  0  0  0  0  0  0  0  0  0
   -3.3270   -0.9472    3.5801 S   0  0  0  0  0  0  0  0  0  0  0  0
   -0.0203   -0.0199   -0.0067 H   0  0  0  0  0  0  0  0  0  0  0  0
   -2.0004   -1.2470    0.7905 H   0  0  0  0  0  0  0  0  0  0  0  0
    0.2555    2.0824    3.7739 H   0  0  0  0  0  0  0  0  0  0  0  0
   -4.6496    0.6760    6.1574 H   0  0  0  0  0  0  0  0  0  0  0  0
   -4.2625   -1.0507    6.3579 H   0  0  0  0  0  0  0  0  0  0  0  0
   -3.2249    0.1675    7.0974 H   0  0  0  0  0  0  0  0  0  0  0  0
   -1.6854    1.3800    5.5577 H   0  0  0  0  0  0  0  0  0  0  0  0
  1  2  2  0  0  0  0
  1  5  1  0  0  0  0
  2  6  1  0  0  0  0
  3  4  1  0  0  0  0
  3  5  2  0  0  0  0
  4  6  2  0  0  0  0
  4  9  1  0  0  0  0
  5 10  1  0  0  0  0
  6 11  1  0  0  0  0
  7  8  1  0  0  0  0
  7  9  2  0  0  0  0
  7 11  1  0  0  0  0
  1 12  1  0  0  0  0
  2 13  1  0  0  0  0
  3 14  1  0  0  0  0
  8 15  1  0  0  0  0
  8 16  1  0  0  0  0
  8 17  1  0  0  0  0
  9 18  1  0  0  0  0
M  CHG  2   9   1  10  -1
M  END
$$$$
