
  -OEChem-07202109493D

 34 36  0     0  0  0  0  0  0999 V2000
    0.3848    5.1896   -5.0992 C   0  0  0  0  0  0  0  0  0  0  0  0
   -1.0107    5.1389   -5.1791 C   0  0  0  0  0  0  0  0  0  0  0  0
   -1.0749    3.2026   -3.7070 C   0  0  0  0  0  0  0  0  0  0  0  0
    1.0409    4.2446   -4.3227 C   0  0  0  0  0  0  0  0  0  0  0  0
    0.3026    3.2689   -3.6403 C   0  0  0  0  0  0  0  0  0  0  0  0
   -1.7339    4.1531   -4.4883 C   0  0  0  0  0  0  0  0  0  0  0  0
    2.4857    3.0300   -3.2789 C   0  0  0  0  0  0  0  0  0  0  0  0
    0.7570    0.5424    0.2326 C   0  0  0  0  0  0  0  0  0  0  0  0
    0.2487    2.9475   -0.2888 C   0  0  0  0  0  0  0  0  0  0  0  0
    0.7852    0.9435    1.7053 C   0  0  0  0  0  0  0  0  0  0  0  0
    0.3088    3.2101    1.2135 C   0  0  0  0  0  0  0  0  0  0  0  0
    1.1027    1.7311   -0.6743 C   0  0  0  0  0  0  0  0  0  0  0  0
    0.9132    1.3670   -2.1464 C   0  0  0  0  0  0  0  0  0  0  0  0
    2.3720    4.1017   -4.1029 N   0  5  0  0  0  0  0  0  0  0  0  0
    3.6526    2.6368   -2.8890 N   0  0  0  0  0  0  0  0  0  0  0  0
    1.2345    2.4874   -2.9641 N   0  0  0  0  0  0  0  0  0  0  0  0
   -0.0836    2.0496    1.9450 O   0  0  0  0  0  0  0  0  0  0  0  0
    2.4831    2.0497   -0.4756 O   0  0  0  0  0  0  0  0  0  0  0  0
   -3.6207    4.1141   -4.6181 Br  0  0  0  0  0  0  0  0  0  0  0  0
    0.9328    5.9557   -5.6390 H   0  0  0  0  0  0  0  0  0  0  0  0
   -1.5270    5.8777   -5.7878 H   0  0  0  0  0  0  0  0  0  0  0  0
   -1.6222    2.4362   -3.1681 H   0  0  0  0  0  0  0  0  0  0  0  0
    1.4605   -0.2836    0.0750 H   0  0  0  0  0  0  0  0  0  0  0  0
   -0.2501    0.1820   -0.0125 H   0  0  0  0  0  0  0  0  0  0  0  0
   -0.7950    2.7586   -0.5703 H   0  0  0  0  0  0  0  0  0  0  0  0
    0.5853    3.8450   -0.8206 H   0  0  0  0  0  0  0  0  0  0  0  0
    0.4388    0.1083    2.3223 H   0  0  0  0  0  0  0  0  0  0  0  0
    1.7994    1.1968    2.0359 H   0  0  0  0  0  0  0  0  0  0  0  0
    1.3115    3.5206    1.5297 H   0  0  0  0  0  0  0  0  0  0  0  0
   -0.3823    4.0178    1.4755 H   0  0  0  0  0  0  0  0  0  0  0  0
    1.5783    0.5323   -2.3594 H   0  0  0  0  0  0  0  0  0  0  0  0
   -0.1294    1.0830   -2.2758 H   0  0  0  0  0  0  0  0  0  0  0  0
    3.5459    1.8219   -2.2776 H   0  0  0  0  0  0  0  0  0  0  0  0
    2.9818    1.2561   -0.7184 H   0  0  0  0  0  0  0  0  0  0  0  0
  1  2  1  0  0  0  0
  1  4  2  0  0  0  0
  2  6  2  0  0  0  0
  3  5  2  0  0  0  0
  3  6  1  0  0  0  0
  4  5  1  0  0  0  0
  4 14  1  0  0  0  0
  5 16  1  0  0  0  0
  6 19  1  0  0  0  0
  7 14  1  0  0  0  0
  7 15  2  0  0  0  0
  7 16  1  0  0  0  0
  8 10  1  0  0  0  0
  8 12  1  0  0  0  0
  9 11  1  0  0  0  0
  9 12  1  0  0  0  0
 10 17  1  0  0  0  0
 11 17  1  0  0  0  0
 12 13  1  0  0  0  0
 12 18  1  0  0  0  0
 13 16  1  0  0  0  0
  1 20  1  0  0  0  0
  2 21  1  0  0  0  0
  3 22  1  0  0  0  0
  8 23  1  0  0  0  0
  8 24  1  0  0  0  0
  9 25  1  0  0  0  0
  9 26  1  0  0  0  0
 10 27  1  0  0  0  0
 10 28  1  0  0  0  0
 11 29  1  0  0  0  0
 11 30  1  0  0  0  0
 13 31  1  0  0  0  0
 13 32  1  0  0  0  0
 15 33  1  0  0  0  0
 18 34  1  0  0  0  0
M  CHG  1  14  -1
M  END
$$$$
