
  -OEChem-07202109493D

 43 45  0     1  0  0  0  0  0999 V2000
   -4.4577   -5.1364   -4.2661 C   0  0  0  0  0  0  0  0  0  0  0  0
   -5.5630   -4.3494   -3.9626 C   0  0  0  0  0  0  0  0  0  0  0  0
   -1.1764   -5.8447   -2.8773 C   0  0  0  0  0  0  0  0  0  0  0  0
   -3.3484   -5.1109   -3.4243 C   0  0  0  0  0  0  0  0  0  0  0  0
   -3.3619   -4.2883   -2.2779 C   0  0  0  0  0  0  0  0  0  0  0  0
   -2.2526   -4.2628   -1.4362 C   0  0  0  0  0  0  0  0  0  0  0  0
   -1.1474   -5.0501   -1.7395 C   0  0  0  0  0  0  0  0  0  0  0  0
   -5.5340   -3.5548   -2.8250 C   0  0  0  0  0  0  0  0  0  0  0  0
    0.2657   -0.7019    0.2998 C   0  0  0  0  0  0  0  0  0  0  0  0
   -0.6853   -2.4204    1.8898 C   0  0  0  0  0  0  0  0  0  0  0  0
    1.4954   -0.5560    1.1936 C   0  0  0  0  0  0  0  0  0  0  0  0
    0.5453   -2.2748    2.7824 C   0  0  0  0  0  0  0  0  0  0  0  0
   -0.3641   -2.0955    0.4249 C   0  0  1  0  0  0  0  0  0  0  0  0
    1.1751   -0.8862    2.6526 C   0  0  1  0  0  0  0  0  0  0  0  0
   -4.4945   -2.6720   -0.8296 C   0  0  0  0  0  0  0  0  0  0  0  0
   -1.6202   -2.1988   -0.4384 C   0  0  0  0  0  0  0  0  0  0  0  0
   -2.2551   -5.8536   -3.6736 N   0  3  0  0  0  0  0  0  0  0  0  0
   -4.4553   -3.5457   -2.0287 N   0  3  0  0  0  0  0  0  0  0  0  0
    2.3622   -0.7855    3.4663 N   0  0  0  0  0  0  0  0  0  0  0  0
   -6.5172   -2.8085   -2.4918 O   0  5  0  0  0  0  0  0  0  0  0  0
   -2.1556   -3.5013   -0.2975 O   0  0  0  0  0  0  0  0  0  0  0  0
   -0.0646   -5.0496   -0.9508 F   0  0  0  0  0  0  0  0  0  0  0  0
   -4.4671   -5.7624   -5.1537 H   0  0  0  0  0  0  0  0  0  0  0  0
   -6.4266   -4.3720   -4.6234 H   0  0  0  0  0  0  0  0  0  0  0  0
   -0.3596   -6.4846   -3.1818 H   0  0  0  0  0  0  0  0  0  0  0  0
   -0.4697    0.0667    0.5707 H   0  0  0  0  0  0  0  0  0  0  0  0
    0.5518   -0.5133   -0.7419 H   0  0  0  0  0  0  0  0  0  0  0  0
   -1.0703   -3.4440    1.9699 H   0  0  0  0  0  0  0  0  0  0  0  0
   -1.4770   -1.7539    2.2556 H   0  0  0  0  0  0  0  0  0  0  0  0
    2.2867   -1.2198    0.8204 H   0  0  0  0  0  0  0  0  0  0  0  0
    1.8793    0.4687    1.1138 H   0  0  0  0  0  0  0  0  0  0  0  0
    0.2586   -2.4641    3.8242 H   0  0  0  0  0  0  0  0  0  0  0  0
    1.2756   -3.0484    2.5104 H   0  0  0  0  0  0  0  0  0  0  0  0
    0.3591   -2.8357    0.0575 H   0  0  0  0  0  0  0  0  0  0  0  0
    0.4464   -0.1427    3.0206 H   0  0  0  0  0  0  0  0  0  0  0  0
   -4.1024   -1.6868   -1.0966 H   0  0  0  0  0  0  0  0  0  0  0  0
   -5.5207   -2.5691   -0.4656 H   0  0  0  0  0  0  0  0  0  0  0  0
   -3.8835   -3.1093   -0.0348 H   0  0  0  0  0  0  0  0  0  0  0  0
   -1.3665   -2.0231   -1.4831 H   0  0  0  0  0  0  0  0  0  0  0  0
   -2.3570   -1.4672   -0.1090 H   0  0  0  0  0  0  0  0  0  0  0  0
   -2.2388   -6.4509   -4.5005 H   0  0  0  0  0  0  0  0  0  0  0  0
    2.5116   -1.6631    3.9035 H   0  0  0  0  0  0  0  0  0  0  0  0
    3.1227   -0.5529    2.8737 H   0  0  0  0  0  0  0  0  0  0  0  0
  1  2  2  0  0  0  0
  1  4  1  0  0  0  0
  2  8  1  0  0  0  0
  3  7  1  0  0  0  0
  3 17  2  0  0  0  0
  4  5  2  0  0  0  0
  4 17  1  0  0  0  0
  5  6  1  0  0  0  0
  5 18  1  0  0  0  0
  6  7  2  0  0  0  0
  6 21  1  0  0  0  0
  7 22  1  0  0  0  0
  8 18  2  0  0  0  0
  8 20  1  0  0  0  0
  9 11  1  0  0  0  0
  9 13  1  0  0  0  0
 10 12  1  0  0  0  0
 10 13  1  0  0  0  0
 11 14  1  0  0  0  0
 12 14  1  0  0  0  0
 13 16  1  0  0  0  0
 14 19  1  0  0  0  0
 15 18  1  0  0  0  0
 16 21  1  0  0  0  0
  1 23  1  0  0  0  0
  2 24  1  0  0  0  0
  3 25  1  0  0  0  0
  9 26  1  0  0  0  0
  9 27  1  0  0  0  0
 10 28  1  0  0  0  0
 10 29  1  0  0  0  0
 11 30  1  0  0  0  0
 11 31  1  0  0  0  0
 12 32  1  0  0  0  0
 12 33  1  0  0  0  0
 13 34  1  0  0  0  0
 14 35  1  0  0  0  0
 15 36  1  0  0  0  0
 15 37  1  0  0  0  0
 15 38  1  0  0  0  0
 16 39  1  0  0  0  0
 16 40  1  0  0  0  0
 17 41  1  0  0  0  0
 19 42  1  0  0  0  0
 19 43  1  0  0  0  0
M  CHG  3  17   1  18   1  20  -1
M  END
$$$$
