
  -OEChem-07202109493D

 27 29  0     0  0  0  0  0  0999 V2000
   -5.9100   -1.7645   -0.5009 C   0  0  0  0  0  0  0  0  0  0  0  0
   -5.2947   -1.7429    0.7506 C   0  0  0  0  0  0  0  0  0  0  0  0
   -5.1805   -1.4327   -1.6426 C   0  0  0  0  0  0  0  0  0  0  0  0
   -3.9499   -1.3894    0.8606 C   0  0  0  0  0  0  0  0  0  0  0  0
   -3.8357   -1.0792   -1.5327 C   0  0  0  0  0  0  0  0  0  0  0  0
   -3.2203   -1.0575   -0.2810 C   0  0  0  0  0  0  0  0  0  0  0  0
    0.5822   -1.1716   -0.1161 C   0  0  0  0  0  0  0  0  0  0  0  0
   -1.8170   -0.6884   -0.1669 C   0  0  0  0  0  0  0  0  0  0  0  0
    0.8126    0.1294    0.0574 C   0  0  0  0  0  0  0  0  0  0  0  0
   -0.8086   -1.5940   -0.2364 C   0  0  0  0  0  0  0  0  0  0  0  0
    2.0398    0.9543    0.2188 C   0  0  0  0  0  0  0  0  0  0  0  0
   -0.2955    1.0903    0.1238 C   0  0  0  0  0  0  0  0  0  0  0  0
    1.7358    2.2354    0.3631 N   0  0  0  0  0  0  0  0  0  0  0  0
   -1.5483    0.6725    0.0125 N   0  0  0  0  0  0  0  0  0  0  0  0
    0.3028    2.2609    0.2974 N   0  3  0  0  0  0  0  0  0  0  0  0
    3.3079    0.4442    0.2169 N   0  0  0  0  0  0  0  0  0  0  0  0
   -1.0822   -3.2886   -0.4640 Cl  0  0  0  0  0  0  0  0  0  0  0  0
   -6.9568   -2.0410   -0.5867 H   0  0  0  0  0  0  0  0  0  0  0  0
   -5.8623   -2.0024    1.6397 H   0  0  0  0  0  0  0  0  0  0  0  0
   -5.6592   -1.4506   -2.6173 H   0  0  0  0  0  0  0  0  0  0  0  0
   -3.4841   -1.3770    1.8432 H   0  0  0  0  0  0  0  0  0  0  0  0
   -3.2804   -0.8231   -2.4319 H   0  0  0  0  0  0  0  0  0  0  0  0
    1.3845   -1.8975   -0.1683 H   0  0  0  0  0  0  0  0  0  0  0  0
   -2.3075    1.3443    0.0603 H   0  0  0  0  0  0  0  0  0  0  0  0
   -0.2209    3.1246    0.3786 H   0  0  0  0  0  0  0  0  0  0  0  0
    3.4242   -0.5377    0.1010 H   0  0  0  0  0  0  0  0  0  0  0  0
    4.0722    1.0716    0.3315 H   0  0  0  0  0  0  0  0  0  0  0  0
  1  2  1  0  0  0  0
  1  3  2  0  0  0  0
  2  4  2  0  0  0  0
  3  5  1  0  0  0  0
  4  6  1  0  0  0  0
  5  6  2  0  0  0  0
  6  8  1  0  0  0  0
  7  9  2  0  0  0  0
  7 10  1  0  0  0  0
  8 10  2  0  0  0  0
  8 14  1  0  0  0  0
  9 11  1  0  0  0  0
  9 12  1  0  0  0  0
 10 17  1  0  0  0  0
 11 13  2  0  0  0  0
 11 16  1  0  0  0  0
 12 14  1  0  0  0  0
 12 15  2  0  0  0  0
 13 15  1  0  0  0  0
  1 18  1  0  0  0  0
  2 19  1  0  0  0  0
  3 20  1  0  0  0  0
  4 21  1  0  0  0  0
  5 22  1  0  0  0  0
  7 23  1  0  0  0  0
 14 24  1  0  0  0  0
 15 25  1  0  0  0  0
 16 26  1  0  0  0  0
 16 27  1  0  0  0  0
M  CHG  1  15   1
M  END
$$$$
