
  -OEChem-07202109493D

 27 28  0     0  0  0  0  0  0999 V2000
    4.0529   -2.2043   -0.0564 C   0  0  0  0  0  0  0  0  0  0  0  0
    3.1023   -0.4698    1.3484 C   0  0  0  0  0  0  0  0  0  0  0  0
    2.0246    0.1093    2.0183 C   0  0  0  0  0  0  0  0  0  0  0  0
    0.5808   -1.6566    1.2219 C   0  0  0  0  0  0  0  0  0  0  0  0
    2.9193   -1.6422    0.6152 C   0  0  0  0  0  0  0  0  0  0  0  0
    0.7638   -0.4841    1.9551 C   0  0  0  0  0  0  0  0  0  0  0  0
    1.6586   -2.2357    0.5520 C   0  0  0  0  0  0  0  0  0  0  0  0
   -0.4356    3.6884    3.1405 C   0  0  0  0  0  0  0  0  0  0  0  0
   -1.6352    3.5217    3.7906 C   0  0  0  0  0  0  0  0  0  0  0  0
   -0.6356    1.4308    2.9740 C   0  0  0  0  0  0  0  0  0  0  0  0
    0.2493    5.0372    2.9241 C   0  0  0  0  0  0  0  0  0  0  0  0
   -2.5275    4.5208    4.4126 C   0  0  0  0  0  0  0  0  0  0  0  0
    4.9713   -2.6596   -0.6005 N   0  0  0  0  0  0  0  0  0  0  0  0
    0.0892    2.4939    2.6998 N   0  3  0  0  0  0  0  0  0  0  0  0
   -0.2821    0.0764    2.6091 N   0  0  0  0  0  0  0  0  0  0  0  0
    1.3497    5.0178    2.3069 O   0  5  0  0  0  0  0  0  0  0  0  0
   -0.3458    6.0513    3.3819 O   0  0  0  0  0  0  0  0  0  0  0  0
   -2.0592    1.8548    3.8221 S   0  0  0  0  0  0  0  0  0  0  0  0
    1.3769   -3.6929   -0.3363 Cl  0  0  0  0  0  0  0  0  0  0  0  0
    4.0785    0.0057    1.4101 H   0  0  0  0  0  0  0  0  0  0  0  0
    2.1754    1.0221    2.5885 H   0  0  0  0  0  0  0  0  0  0  0  0
   -0.4057   -2.1131    1.1781 H   0  0  0  0  0  0  0  0  0  0  0  0
   -3.2658    4.8989    3.6871 H   0  0  0  0  0  0  0  0  0  0  0  0
   -3.0822    4.1024    5.2693 H   0  0  0  0  0  0  0  0  0  0  0  0
   -1.9678    5.3868    4.8047 H   0  0  0  0  0  0  0  0  0  0  0  0
    0.9695    2.4017    2.1964 H   0  0  0  0  0  0  0  0  0  0  0  0
   -1.0206   -0.5741    2.9428 H   0  0  0  0  0  0  0  0  0  0  0  0
  1  5  1  0  0  0  0
  1 13  3  0  0  0  0
  2  3  2  0  0  0  0
  2  5  1  0  0  0  0
  3  6  1  0  0  0  0
  4  6  2  0  0  0  0
  4  7  1  0  0  0  0
  5  7  2  0  0  0  0
  6 15  1  0  0  0  0
  7 19  1  0  0  0  0
  8  9  2  0  0  0  0
  8 11  1  0  0  0  0
  8 14  1  0  0  0  0
  9 12  1  0  0  0  0
  9 18  1  0  0  0  0
 10 14  2  0  0  0  0
 10 15  1  0  0  0  0
 10 18  1  0  0  0  0
 11 16  1  0  0  0  0
 11 17  2  0  0  0  0
  2 20  1  0  0  0  0
  3 21  1  0  0  0  0
  4 22  1  0  0  0  0
 12 23  1  0  0  0  0
 12 24  1  0  0  0  0
 12 25  1  0  0  0  0
 14 26  1  0  0  0  0
 15 27  1  0  0  0  0
M  CHG  2  14   1  16  -1
M  END
$$$$
