
  -OEChem-07202109493D

 26 28  0     1  0  0  0  0  0999 V2000
    0.4559   -3.8175   -4.7431 C   0  0  0  0  0  0  0  0  0  0  0  0
   -0.7413   -3.1645   -4.4499 C   0  0  0  0  0  0  0  0  0  0  0  0
    1.5665   -3.6418   -3.9177 C   0  0  0  0  0  0  0  0  0  0  0  0
   -0.8278   -2.3357   -3.3313 C   0  0  0  0  0  0  0  0  0  0  0  0
    1.4801   -2.8130   -2.7992 C   0  0  0  0  0  0  0  0  0  0  0  0
    0.2829   -2.1599   -2.5059 C   0  0  0  0  0  0  0  0  0  0  0  0
    0.1931   -1.2938   -1.3368 C   0  0  0  0  0  0  0  0  0  0  0  0
   -0.1859   -1.7865   -0.1337 C   0  0  0  0  0  0  0  0  0  0  0  0
    0.2519    0.8376   -0.5794 C   0  0  0  0  0  0  0  0  0  0  0  0
   -0.2459    1.6643    1.4230 C   0  0  0  0  0  0  0  0  0  0  0  0
   -0.3020   -0.8821    1.0687 C   0  0  0  0  0  0  0  0  0  0  0  0
   -0.6286    0.5115    0.5744 C   0  0  2  0  0  0  0  0  0  0  0  0
    0.6022    0.0182   -1.5160 N   0  0  0  0  0  0  0  0  0  0  0  0
    0.7098    2.1284   -0.4732 N   0  0  0  0  0  0  0  0  0  0  0  0
    0.4677    2.5812    0.6860 N   0  0  0  0  0  0  0  0  0  0  0  0
   -0.5549    1.8205    2.6621 N   0  0  0  0  0  0  0  0  0  0  0  0
   -0.6195   -3.4373    0.1397 Cl  0  0  0  0  0  0  0  0  0  0  0  0
    0.5228   -4.4638   -5.6133 H   0  0  0  0  0  0  0  0  0  0  0  0
   -1.6066   -3.3021   -5.0918 H   0  0  0  0  0  0  0  0  0  0  0  0
    2.4984   -4.1511   -4.1453 H   0  0  0  0  0  0  0  0  0  0  0  0
   -1.7678   -1.8333   -3.1157 H   0  0  0  0  0  0  0  0  0  0  0  0
    2.3546   -2.6861   -2.1654 H   0  0  0  0  0  0  0  0  0  0  0  0
   -1.0971   -1.2140    1.7466 H   0  0  0  0  0  0  0  0  0  0  0  0
    0.6357   -0.9049    1.6375 H   0  0  0  0  0  0  0  0  0  0  0  0
   -1.6777    0.6077    0.2716 H   0  0  0  0  0  0  0  0  0  0  0  0
   -0.1618    2.7048    3.0031 H   0  0  0  0  0  0  0  0  0  0  0  0
  1  2  1  0  0  0  0
  1  3  2  0  0  0  0
  2  4  2  0  0  0  0
  3  5  1  0  0  0  0
  4  6  1  0  0  0  0
  5  6  2  0  0  0  0
  6  7  1  0  0  0  0
  7  8  2  0  0  0  0
  7 13  1  0  0  0  0
  8 11  1  0  0  0  0
  8 17  1  0  0  0  0
  9 12  1  0  0  0  0
  9 13  2  0  0  0  0
  9 14  1  0  0  0  0
 10 12  1  0  0  0  0
 10 15  1  0  0  0  0
 10 16  2  0  0  0  0
 11 12  1  0  0  0  0
 14 15  2  0  0  0  0
  1 18  1  0  0  0  0
  2 19  1  0  0  0  0
  3 20  1  0  0  0  0
  4 21  1  0  0  0  0
  5 22  1  0  0  0  0
 11 23  1  0  0  0  0
 11 24  1  0  0  0  0
 12 25  1  0  0  0  0
 16 26  1  0  0  0  0
M  END
$$$$
