
  -OEChem-07202109493D

 41 42  0     0  0  0  0  0  0999 V2000
   -3.2647   -2.4234   -0.0431 C   0  0  0  0  0  0  0  0  0  0  0  0
   -4.6061   -0.5835    0.7644 C   0  0  0  0  0  0  0  0  0  0  0  0
   -3.5445   -1.0575   -0.0064 C   0  0  0  0  0  0  0  0  0  0  0  0
   -4.0465   -3.3155    0.6909 C   0  0  0  0  0  0  0  0  0  0  0  0
   -5.3879   -1.4755    1.4984 C   0  0  0  0  0  0  0  0  0  0  0  0
   -5.1081   -2.8415    1.4617 C   0  0  0  0  0  0  0  0  0  0  0  0
   -4.1697    1.4548   -2.1429 C   0  0  0  0  0  0  0  0  0  0  0  0
   -3.3765    0.3709   -2.0457 C   0  0  0  0  0  0  0  0  0  0  0  0
   -3.1824   -0.3964   -3.3028 C   0  0  0  0  0  0  0  0  0  0  0  0
   -4.6479    1.2260   -4.4550 C   0  0  0  0  0  0  0  0  0  0  0  0
   -3.6959   -4.7709    0.6109 C   0  0  0  0  0  0  0  0  0  0  0  0
   -6.5829    0.6430    2.1538 C   0  0  0  0  0  0  0  0  0  0  0  0
   -6.3333   -1.2269    3.8203 C   0  0  0  0  0  0  0  0  0  0  0  0
   -7.9350   -1.4315    1.9297 C   0  0  0  0  0  0  0  0  0  0  0  0
   -2.7008   -0.0946   -0.7986 C   0  0  0  0  0  0  0  0  0  0  0  0
   -6.5140   -0.9053    2.3071 C   0  0  0  0  0  0  0  0  0  0  0  0
   -4.8331    1.9793   -3.2003 N   0  5  0  0  0  0  0  0  0  0  0  0
   -5.3255    1.7147   -5.6541 N   0  5  0  0  0  0  0  0  0  0  0  0
   -2.4577   -1.4591   -3.4025 N   0  0  0  0  0  0  0  0  0  0  0  0
   -3.9403    0.1882   -4.5492 N   0  3  0  0  0  0  0  0  0  0  0  0
   -5.8280   -3.6630    2.1377 O   0  5  0  0  0  0  0  0  0  0  0  0
   -2.4363   -2.7906   -0.6446 H   0  0  0  0  0  0  0  0  0  0  0  0
   -4.8222    0.4821    0.7915 H   0  0  0  0  0  0  0  0  0  0  0  0
   -4.2874    1.9908   -1.1993 H   0  0  0  0  0  0  0  0  0  0  0  0
   -2.9767   -5.0262    1.3950 H   0  0  0  0  0  0  0  0  0  0  0  0
   -4.5876   -5.3948    0.7313 H   0  0  0  0  0  0  0  0  0  0  0  0
   -3.2593   -5.0145   -0.3634 H   0  0  0  0  0  0  0  0  0  0  0  0
   -7.3994    1.0859    2.7361 H   0  0  0  0  0  0  0  0  0  0  0  0
   -5.6560    1.1231    2.4862 H   0  0  0  0  0  0  0  0  0  0  0  0
   -6.7363    0.9161    1.1030 H   0  0  0  0  0  0  0  0  0  0  0  0
   -7.1514   -0.8145    4.4209 H   0  0  0  0  0  0  0  0  0  0  0  0
   -6.3022   -2.3046    4.0188 H   0  0  0  0  0  0  0  0  0  0  0  0
   -5.3990   -0.7917    4.1941 H   0  0  0  0  0  0  0  0  0  0  0  0
   -8.7236   -0.9859    2.5480 H   0  0  0  0  0  0  0  0  0  0  0  0
   -8.1749   -1.1988    0.8856 H   0  0  0  0  0  0  0  0  0  0  0  0
   -7.9985   -2.5180    2.0610 H   0  0  0  0  0  0  0  0  0  0  0  0
   -2.4525    0.7725   -0.1754 H   0  0  0  0  0  0  0  0  0  0  0  0
   -1.7438   -0.5600   -1.0605 H   0  0  0  0  0  0  0  0  0  0  0  0
   -6.2233    1.9175   -5.2956 H   0  0  0  0  0  0  0  0  0  0  0  0
   -2.4863   -1.7979   -4.3693 H   0  0  0  0  0  0  0  0  0  0  0  0
   -3.8396   -0.3041   -5.4379 H   0  0  0  0  0  0  0  0  0  0  0  0
  1  3  2  0  0  0  0
  1  4  1  0  0  0  0
  2  3  1  0  0  0  0
  2  5  2  0  0  0  0
  3 15  1  0  0  0  0
  4  6  2  0  0  0  0
  4 11  1  0  0  0  0
  5  6  1  0  0  0  0
  5 16  1  0  0  0  0
  6 21  1  0  0  0  0
  7  8  2  0  0  0  0
  7 17  1  0  0  0  0
  8  9  1  0  0  0  0
  8 15  1  0  0  0  0
  9 19  2  0  0  0  0
  9 20  1  0  0  0  0
 10 17  1  0  0  0  0
 10 18  1  0  0  0  0
 10 20  2  0  0  0  0
 12 16  1  0  0  0  0
 13 16  1  0  0  0  0
 14 16  1  0  0  0  0
  1 22  1  0  0  0  0
  2 23  1  0  0  0  0
  7 24  1  0  0  0  0
 11 25  1  0  0  0  0
 11 26  1  0  0  0  0
 11 27  1  0  0  0  0
 12 28  1  0  0  0  0
 12 29  1  0  0  0  0
 12 30  1  0  0  0  0
 13 31  1  0  0  0  0
 13 32  1  0  0  0  0
 13 33  1  0  0  0  0
 14 34  1  0  0  0  0
 14 35  1  0  0  0  0
 14 36  1  0  0  0  0
 15 37  1  0  0  0  0
 15 38  1  0  0  0  0
 18 39  1  0  0  0  0
 19 40  1  0  0  0  0
 20 41  1  0  0  0  0
M  CHG  4  17  -1  18  -1  20   1  21  -1
M  END
$$$$
