
  -OEChem-07202109493D

 41 42  0     0  0  0  0  0  0999 V2000
   -1.8244   -2.4936   -3.5667 C   0  0  0  0  0  0  0  0  0  0  0  0
   -2.7773   -2.4685   -1.3468 C   0  0  0  0  0  0  0  0  0  0  0  0
   -2.0882   -1.8222   -2.3729 C   0  0  0  0  0  0  0  0  0  0  0  0
   -2.2499   -3.8114   -3.7345 C   0  0  0  0  0  0  0  0  0  0  0  0
   -3.2028   -3.7863   -1.5145 C   0  0  0  0  0  0  0  0  0  0  0  0
   -2.9390   -4.4577   -2.7084 C   0  0  0  0  0  0  0  0  0  0  0  0
   -3.4954    0.9549   -1.1221 C   0  0  0  0  0  0  0  0  0  0  0  0
   -2.7398    0.5864   -2.3394 C   0  0  0  0  0  0  0  0  0  0  0  0
   -3.1651    1.2097   -3.4673 C   0  0  0  0  0  0  0  0  0  0  0  0
   -4.8541    2.3821   -2.2692 C   0  0  0  0  0  0  0  0  0  0  0  0
   -1.9362   -4.4792   -5.0395 C   0  0  0  0  0  0  0  0  0  0  0  0
   -4.0834   -3.4391    0.8200 C   0  0  0  0  0  0  0  0  0  0  0  0
   -3.1837   -5.6886    0.1371 C   0  0  0  0  0  0  0  0  0  0  0  0
   -5.3871   -4.9054   -0.7071 C   0  0  0  0  0  0  0  0  0  0  0  0
   -1.6290   -0.3999   -2.1918 C   0  0  0  0  0  0  0  0  0  0  0  0
   -3.9383   -4.4264   -0.3758 C   0  0  0  0  0  0  0  0  0  0  0  0
   -4.1891    2.1063   -3.5515 N   0  5  0  0  0  0  0  0  0  0  0  0
   -4.4781    1.7939   -1.1098 N   0  0  0  0  0  0  0  0  0  0  0  0
   -2.6242    1.0290   -4.6989 N   0  5  0  0  0  0  0  0  0  0  0  0
   -5.8107    3.1913   -2.2221 N   0  3  0  0  0  0  0  0  0  0  0  0
   -3.3307   -5.6714   -2.8628 O   0  5  0  0  0  0  0  0  0  0  0  0
   -1.2866   -1.9876   -4.3653 H   0  0  0  0  0  0  0  0  0  0  0  0
   -2.9817   -1.9429   -0.4168 H   0  0  0  0  0  0  0  0  0  0  0  0
   -3.1808    0.4703   -0.1839 H   0  0  0  0  0  0  0  0  0  0  0  0
   -0.9667   -4.9828   -4.9786 H   0  0  0  0  0  0  0  0  0  0  0  0
   -2.7035   -5.2174   -5.2951 H   0  0  0  0  0  0  0  0  0  0  0  0
   -1.9053   -3.7486   -5.8547 H   0  0  0  0  0  0  0  0  0  0  0  0
   -4.6186   -3.8831    1.6674 H   0  0  0  0  0  0  0  0  0  0  0  0
   -3.1070   -3.1122    1.1941 H   0  0  0  0  0  0  0  0  0  0  0  0
   -4.6339   -2.5428    0.5103 H   0  0  0  0  0  0  0  0  0  0  0  0
   -3.7129   -6.1645    0.9699 H   0  0  0  0  0  0  0  0  0  0  0  0
   -3.0628   -6.4501   -0.6423 H   0  0  0  0  0  0  0  0  0  0  0  0
   -2.1838   -5.4163    0.4953 H   0  0  0  0  0  0  0  0  0  0  0  0
   -5.8829   -5.3658    0.1560 H   0  0  0  0  0  0  0  0  0  0  0  0
   -6.0144   -4.0654   -1.0278 H   0  0  0  0  0  0  0  0  0  0  0  0
   -5.3794   -5.6520   -1.5098 H   0  0  0  0  0  0  0  0  0  0  0  0
   -1.1722   -0.2862   -1.2017 H   0  0  0  0  0  0  0  0  0  0  0  0
   -0.8402   -0.1639   -2.9151 H   0  0  0  0  0  0  0  0  0  0  0  0
   -1.9302    0.2963   -4.6108 H   0  0  0  0  0  0  0  0  0  0  0  0
   -6.1783    3.6989   -3.0605 H   0  0  0  0  0  0  0  0  0  0  0  0
   -6.3229    3.4281   -1.3404 H   0  0  0  0  0  0  0  0  0  0  0  0
  1  3  2  0  0  0  0
  1  4  1  0  0  0  0
  2  3  1  0  0  0  0
  2  5  2  0  0  0  0
  3 15  1  0  0  0  0
  4  6  2  0  0  0  0
  4 11  1  0  0  0  0
  5  6  1  0  0  0  0
  5 16  1  0  0  0  0
  6 21  1  0  0  0  0
  7  8  1  0  0  0  0
  7 18  2  0  0  0  0
  8  9  2  0  0  0  0
  8 15  1  0  0  0  0
  9 17  1  0  0  0  0
  9 19  1  0  0  0  0
 10 17  1  0  0  0  0
 10 18  1  0  0  0  0
 10 20  2  0  0  0  0
 12 16  1  0  0  0  0
 13 16  1  0  0  0  0
 14 16  1  0  0  0  0
  1 22  1  0  0  0  0
  2 23  1  0  0  0  0
  7 24  1  0  0  0  0
 11 25  1  0  0  0  0
 11 26  1  0  0  0  0
 11 27  1  0  0  0  0
 12 28  1  0  0  0  0
 12 29  1  0  0  0  0
 12 30  1  0  0  0  0
 13 31  1  0  0  0  0
 13 32  1  0  0  0  0
 13 33  1  0  0  0  0
 14 34  1  0  0  0  0
 14 35  1  0  0  0  0
 14 36  1  0  0  0  0
 15 37  1  0  0  0  0
 15 38  1  0  0  0  0
 19 39  1  0  0  0  0
 20 40  1  0  0  0  0
 20 41  1  0  0  0  0
M  CHG  4  17  -1  19  -1  20   1  21  -1
M  END
$$$$
