
  -OEChem-07202109493D

 30 31  0     1  0  0  0  0  0999 V2000
   -0.8110   -4.8783   -0.4349 C   0  0  0  0  0  0  0  0  0  0  0  0
   -2.0242   -4.8957   -1.1230 C   0  0  0  0  0  0  0  0  0  0  0  0
    0.0513   -3.7901   -0.5690 C   0  0  0  0  0  0  0  0  0  0  0  0
   -1.5127   -2.7368   -2.0794 C   0  0  0  0  0  0  0  0  0  0  0  0
   -2.3750   -3.8250   -1.9453 C   0  0  0  0  0  0  0  0  0  0  0  0
   -0.2995   -2.7194   -1.3913 C   0  0  0  0  0  0  0  0  0  0  0  0
    1.1053    1.4948    0.1991 C   0  0  0  0  0  0  0  0  0  0  0  0
    1.2554    0.5417   -0.7268 C   0  0  0  0  0  0  0  0  0  0  0  0
    0.1402    1.4060    1.2632 C   0  0  0  0  0  0  0  0  0  0  0  0
   -0.7011    0.3685    1.3582 C   0  0  0  0  0  0  0  0  0  0  0  0
    0.3918   -0.6647   -0.6739 C   0  0  0  0  0  0  0  0  0  0  0  0
   -2.0724   -0.7934   -0.2149 C   0  0  0  0  0  0  0  0  0  0  0  0
   -0.7014   -0.7707    0.3869 C   0  0  2  0  0  0  0  0  0  0  0  0
   -3.6722   -3.8432   -2.6811 C   0  0  0  0  0  0  0  0  0  0  0  0
    0.5678   -1.6254   -1.5264 N   0  0  0  0  0  0  0  0  0  0  0  0
   -2.3929   -0.2321   -1.2521 O   0  0  0  0  0  0  0  0  0  0  0  0
   -2.9195   -1.5233    0.5511 O   0  0  0  0  0  0  0  0  0  0  0  0
   -4.4136   -4.9682   -2.4558 F   0  0  0  0  0  0  0  0  0  0  0  0
   -4.4973   -2.8030   -2.3604 F   0  0  0  0  0  0  0  0  0  0  0  0
   -3.5091   -3.7774   -4.0346 F   0  0  0  0  0  0  0  0  0  0  0  0
   -0.5382   -5.7119    0.2057 H   0  0  0  0  0  0  0  0  0  0  0  0
   -2.6904   -5.7475   -1.0120 H   0  0  0  0  0  0  0  0  0  0  0  0
    0.9945   -3.7856   -0.0289 H   0  0  0  0  0  0  0  0  0  0  0  0
   -1.7867   -1.9015   -2.7201 H   0  0  0  0  0  0  0  0  0  0  0  0
    1.7330    2.3798    0.1731 H   0  0  0  0  0  0  0  0  0  0  0  0
    1.9957    0.6220   -1.5138 H   0  0  0  0  0  0  0  0  0  0  0  0
    0.1133    2.2089    1.9918 H   0  0  0  0  0  0  0  0  0  0  0  0
   -1.4061    0.3394    2.1854 H   0  0  0  0  0  0  0  0  0  0  0  0
   -0.5534   -1.7083    0.9350 H   0  0  0  0  0  0  0  0  0  0  0  0
   -3.8248   -1.5487    0.1741 H   0  0  0  0  0  0  0  0  0  0  0  0
  1  2  1  0  0  0  0
  1  3  2  0  0  0  0
  2  5  2  0  0  0  0
  3  6  1  0  0  0  0
  4  5  1  0  0  0  0
  4  6  2  0  0  0  0
  5 14  1  0  0  0  0
  6 15  1  0  0  0  0
  7  8  2  0  0  0  0
  7  9  1  0  0  0  0
  8 11  1  0  0  0  0
  9 10  2  0  0  0  0
 10 13  1  0  0  0  0
 11 13  1  0  0  0  0
 11 15  2  0  0  0  0
 12 13  1  0  0  0  0
 12 16  2  0  0  0  0
 12 17  1  0  0  0  0
 14 18  1  0  0  0  0
 14 19  1  0  0  0  0
 14 20  1  0  0  0  0
  1 21  1  0  0  0  0
  2 22  1  0  0  0  0
  3 23  1  0  0  0  0
  4 24  1  0  0  0  0
  7 25  1  0  0  0  0
  8 26  1  0  0  0  0
  9 27  1  0  0  0  0
 10 28  1  0  0  0  0
 13 29  1  0  0  0  0
 17 30  1  0  0  0  0
M  END
$$$$
