
  -OEChem-07202109493D

 40 41  0     0  0  0  0  0  0999 V2000
    2.2886    0.1259    2.4848 C   0  0  0  0  0  0  0  0  0  0  0  0
    1.2550    0.6458    4.6056 C   0  0  0  0  0  0  0  0  0  0  0  0
    1.1648    0.5003    3.2213 C   0  0  0  0  0  0  0  0  0  0  0  0
    3.5026   -0.1031    3.1325 C   0  0  0  0  0  0  0  0  0  0  0  0
    2.4690    0.4169    5.2534 C   0  0  0  0  0  0  0  0  0  0  0  0
    3.5927    0.0424    4.5168 C   0  0  0  0  0  0  0  0  0  0  0  0
   -0.6202   -0.4449    1.7558 C   0  0  0  0  0  0  0  0  0  0  0  0
   -0.5765   -0.5786    0.4180 C   0  0  0  0  0  0  0  0  0  0  0  0
   -1.2101   -1.6298    2.5073 C   0  0  0  0  0  0  0  0  0  0  0  0
   -1.5635   -2.7626    0.5152 C   0  0  0  0  0  0  0  0  0  0  0  0
    4.4149   -0.5948    0.9920 C   0  0  0  0  0  0  0  0  0  0  0  0
    1.3489    0.9478    7.2830 C   0  0  0  0  0  0  0  0  0  0  0  0
   -1.0091    0.9144   -1.3029 C   0  0  0  0  0  0  0  0  0  0  0  0
   -0.1445    0.7476    2.5228 C   0  0  0  0  0  0  0  0  0  0  0  0
   -1.6461   -2.7084    1.8921 N   0  0  0  0  0  0  0  0  0  0  0  0
   -2.0066   -3.8477   -0.0446 N   0  0  0  0  0  0  0  0  0  0  0  0
   -1.0373   -1.7126   -0.1996 N   0  0  0  0  0  0  0  0  0  0  0  0
   -1.2973   -1.5864    3.8824 N   0  0  0  0  0  0  0  0  0  0  0  0
    4.7793   -0.1814    5.1499 O   0  0  0  0  0  0  0  0  0  0  0  0
    4.5926   -0.4684    2.4014 O   0  0  0  0  0  0  0  0  0  0  0  0
    2.5436    0.5627    6.6059 O   0  0  0  0  0  0  0  0  0  0  0  0
   -0.0659    0.4214   -0.3818 O   0  0  0  0  0  0  0  0  0  0  0  0
    2.2209    0.0119    1.4055 H   0  0  0  0  0  0  0  0  0  0  0  0
    0.3804    0.9376    5.1821 H   0  0  0  0  0  0  0  0  0  0  0  0
    5.3599   -0.8906    0.5299 H   0  0  0  0  0  0  0  0  0  0  0  0
    4.0782    0.3595    0.5793 H   0  0  0  0  0  0  0  0  0  0  0  0
    3.6607   -1.3607    0.7961 H   0  0  0  0  0  0  0  0  0  0  0  0
    1.5464    1.0283    8.3548 H   0  0  0  0  0  0  0  0  0  0  0  0
    0.5694    0.2039    7.1002 H   0  0  0  0  0  0  0  0  0  0  0  0
    1.0210    1.9177    6.9015 H   0  0  0  0  0  0  0  0  0  0  0  0
   -0.5519    1.7012   -1.9078 H   0  0  0  0  0  0  0  0  0  0  0  0
   -1.8736    1.3102   -0.7639 H   0  0  0  0  0  0  0  0  0  0  0  0
   -1.3306    0.0979   -1.9538 H   0  0  0  0  0  0  0  0  0  0  0  0
   -0.9059    1.0299    3.2580 H   0  0  0  0  0  0  0  0  0  0  0  0
   -0.0541    1.5985    1.8396 H   0  0  0  0  0  0  0  0  0  0  0  0
   -1.8916   -3.7662   -1.0569 H   0  0  0  0  0  0  0  0  0  0  0  0
   -0.9768   -1.7516   -1.2107 H   0  0  0  0  0  0  0  0  0  0  0  0
   -0.9683   -0.7734    4.3416 H   0  0  0  0  0  0  0  0  0  0  0  0
   -1.6849   -2.3701    4.3468 H   0  0  0  0  0  0  0  0  0  0  0  0
    5.4595   -0.4322    4.5059 H   0  0  0  0  0  0  0  0  0  0  0  0
  1  3  2  0  0  0  0
  1  4  1  0  0  0  0
  2  3  1  0  0  0  0
  2  5  2  0  0  0  0
  3 14  1  0  0  0  0
  4  6  2  0  0  0  0
  4 20  1  0  0  0  0
  5  6  1  0  0  0  0
  5 21  1  0  0  0  0
  6 19  1  0  0  0  0
  7  8  2  0  0  0  0
  7  9  1  0  0  0  0
  7 14  1  0  0  0  0
  8 17  1  0  0  0  0
  8 22  1  0  0  0  0
  9 15  2  0  0  0  0
  9 18  1  0  0  0  0
 10 15  1  0  0  0  0
 10 16  2  0  0  0  0
 10 17  1  0  0  0  0
 11 20  1  0  0  0  0
 12 21  1  0  0  0  0
 13 22  1  0  0  0  0
  1 23  1  0  0  0  0
  2 24  1  0  0  0  0
 11 25  1  0  0  0  0
 11 26  1  0  0  0  0
 11 27  1  0  0  0  0
 12 28  1  0  0  0  0
 12 29  1  0  0  0  0
 12 30  1  0  0  0  0
 13 31  1  0  0  0  0
 13 32  1  0  0  0  0
 13 33  1  0  0  0  0
 14 34  1  0  0  0  0
 14 35  1  0  0  0  0
 16 36  1  0  0  0  0
 17 37  1  0  0  0  0
 18 38  1  0  0  0  0
 18 39  1  0  0  0  0
 19 40  1  0  0  0  0
M  END
$$$$
