
  -OEChem-07202109493D

 37 38  0     0  0  0  0  0  0999 V2000
   -1.1972   -2.3765    2.3154 C   0  0  0  0  0  0  0  0  0  0  0  0
   -2.9056   -1.1316    3.4851 C   0  0  0  0  0  0  0  0  0  0  0  0
   -2.1337   -1.3432    2.3427 C   0  0  0  0  0  0  0  0  0  0  0  0
   -1.8044   -2.9867    4.5728 C   0  0  0  0  0  0  0  0  0  0  0  0
   -1.0325   -3.1983    3.4304 C   0  0  0  0  0  0  0  0  0  0  0  0
   -2.7410   -1.9534    4.6002 C   0  0  0  0  0  0  0  0  0  0  0  0
   -3.5417   -0.7923    0.3575 C   0  0  0  0  0  0  0  0  0  0  0  0
   -4.6826   -0.0854    0.3445 C   0  0  0  0  0  0  0  0  0  0  0  0
   -3.5240   -2.0207   -0.4953 C   0  0  0  0  0  0  0  0  0  0  0  0
   -5.6619   -1.5315   -1.1030 C   0  0  0  0  0  0  0  0  0  0  0  0
   -0.5507   -5.4586    2.8697 C   0  0  0  0  0  0  0  0  0  0  0  0
   -4.7723   -2.3825    5.7601 C   0  0  0  0  0  0  0  0  0  0  0  0
   -6.0513    1.6787    0.9709 C   0  0  0  0  0  0  0  0  0  0  0  0
   -2.3113   -0.4571    1.1404 C   0  0  0  0  0  0  0  0  0  0  0  0
   -4.6107   -2.3402   -1.1986 N   0  5  0  0  0  0  0  0  0  0  0  0
   -5.7722   -0.4508   -0.3975 N   0  0  0  0  0  0  0  0  0  0  0  0
   -6.6979   -1.9187   -1.8358 N   0  5  0  0  0  0  0  0  0  0  0  0
   -2.4874   -2.7904   -0.5763 N   0  0  0  0  0  0  0  0  0  0  0  0
   -1.6528   -3.7436    5.5997 O   0  5  0  0  0  0  0  0  0  0  0  0
   -0.1029   -4.1973    3.3565 O   0  0  0  0  0  0  0  0  0  0  0  0
   -3.5198   -1.7075    5.6960 O   0  0  0  0  0  0  0  0  0  0  0  0
   -4.7927    1.0651    1.1016 O   0  0  0  0  0  0  0  0  0  0  0  0
   -0.5948   -2.5424    1.4254 H   0  0  0  0  0  0  0  0  0  0  0  0
   -3.6361   -0.3264    3.5077 H   0  0  0  0  0  0  0  0  0  0  0  0
    0.2840   -6.1638    2.8608 H   0  0  0  0  0  0  0  0  0  0  0  0
   -0.9513   -5.3391    1.8599 H   0  0  0  0  0  0  0  0  0  0  0  0
   -1.3362   -5.8356    3.5289 H   0  0  0  0  0  0  0  0  0  0  0  0
   -5.2923   -2.1005    6.6789 H   0  0  0  0  0  0  0  0  0  0  0  0
   -4.6066   -3.4626    5.7394 H   0  0  0  0  0  0  0  0  0  0  0  0
   -5.3772   -2.0920    4.8979 H   0  0  0  0  0  0  0  0  0  0  0  0
   -6.0839    2.5800    1.5879 H   0  0  0  0  0  0  0  0  0  0  0  0
   -6.8320    0.9811    1.2844 H   0  0  0  0  0  0  0  0  0  0  0  0
   -6.2072    1.9505   -0.0758 H   0  0  0  0  0  0  0  0  0  0  0  0
   -2.3621    0.5896    1.4584 H   0  0  0  0  0  0  0  0  0  0  0  0
   -1.4395   -0.5316    0.4825 H   0  0  0  0  0  0  0  0  0  0  0  0
   -7.3491   -2.4275   -1.2340 H   0  0  0  0  0  0  0  0  0  0  0  0
   -2.6956   -3.5657   -1.2115 H   0  0  0  0  0  0  0  0  0  0  0  0
  1  3  2  0  0  0  0
  1  5  1  0  0  0  0
  2  3  1  0  0  0  0
  2  6  2  0  0  0  0
  3 14  1  0  0  0  0
  4  5  2  0  0  0  0
  4  6  1  0  0  0  0
  4 19  1  0  0  0  0
  5 20  1  0  0  0  0
  6 21  1  0  0  0  0
  7  8  2  0  0  0  0
  7  9  1  0  0  0  0
  7 14  1  0  0  0  0
  8 16  1  0  0  0  0
  8 22  1  0  0  0  0
  9 15  1  0  0  0  0
  9 18  2  0  0  0  0
 10 15  1  0  0  0  0
 10 16  2  0  0  0  0
 10 17  1  0  0  0  0
 11 20  1  0  0  0  0
 12 21  1  0  0  0  0
 13 22  1  0  0  0  0
  1 23  1  0  0  0  0
  2 24  1  0  0  0  0
 11 25  1  0  0  0  0
 11 26  1  0  0  0  0
 11 27  1  0  0  0  0
 12 28  1  0  0  0  0
 12 29  1  0  0  0  0
 12 30  1  0  0  0  0
 13 31  1  0  0  0  0
 13 32  1  0  0  0  0
 13 33  1  0  0  0  0
 14 34  1  0  0  0  0
 14 35  1  0  0  0  0
 17 36  1  0  0  0  0
 18 37  1  0  0  0  0
M  CHG  3  15  -1  17  -1  19  -1
M  END
$$$$
