
  -OEChem-07202109483D

 36 38  0     0  0  0  0  0  0999 V2000
    4.4423   -1.5136   -3.9686 C   0  0  0  0  0  0  0  0  0  0  0  0
    3.7421   -2.7150   -3.7882 C   0  0  0  0  0  0  0  0  0  0  0  0
    1.7867   -1.5754   -2.8267 C   0  0  0  0  0  0  0  0  0  0  0  0
    3.7762   -0.3630   -3.5633 C   0  0  0  0  0  0  0  0  0  0  0  0
    2.4933   -0.3928   -3.0117 C   0  0  0  0  0  0  0  0  0  0  0  0
    2.4460   -2.7452   -3.2308 C   0  0  0  0  0  0  0  0  0  0  0  0
    3.1715    1.7234   -3.0885 C   0  0  0  0  0  0  0  0  0  0  0  0
    1.6199    0.5277    0.1252 C   0  0  0  0  0  0  0  0  0  0  0  0
   -0.2057    2.2449   -0.0566 C   0  0  0  0  0  0  0  0  0  0  0  0
    1.6570    0.8317    1.6208 C   0  0  0  0  0  0  0  0  0  0  0  0
   -0.0615    2.4515    1.4488 C   0  0  0  0  0  0  0  0  0  0  0  0
    1.1027    1.7311   -0.6743 C   0  0  0  0  0  0  0  0  0  0  0  0
    0.9132    1.3670   -2.1464 C   0  0  0  0  0  0  0  0  0  0  0  0
    4.1515    0.9646   -3.5897 N   0  0  0  0  0  0  0  0  0  0  0  0
    2.1640    0.9183   -2.7355 N   0  3  0  0  0  0  0  0  0  0  0  0
    3.2083    3.0774   -2.9660 N   0  0  0  0  0  0  0  0  0  0  0  0
    0.3740    1.2502    2.0838 O   0  0  0  0  0  0  0  0  0  0  0  0
    2.0891    2.7647   -0.6017 O   0  0  0  0  0  0  0  0  0  0  0  0
    1.5702   -4.4126   -3.0222 Br  0  0  0  0  0  0  0  0  0  0  0  0
    5.4364   -1.4764   -4.3949 H   0  0  0  0  0  0  0  0  0  0  0  0
    4.2253   -3.6424   -4.0920 H   0  0  0  0  0  0  0  0  0  0  0  0
    0.7929   -1.5731   -2.3972 H   0  0  0  0  0  0  0  0  0  0  0  0
    2.6262    0.2452   -0.2058 H   0  0  0  0  0  0  0  0  0  0  0  0
    0.9548   -0.3292   -0.0412 H   0  0  0  0  0  0  0  0  0  0  0  0
   -1.0011    1.5102   -0.2351 H   0  0  0  0  0  0  0  0  0  0  0  0
   -0.5099    3.1915   -0.5181 H   0  0  0  0  0  0  0  0  0  0  0  0
    1.9324   -0.0715    2.1745 H   0  0  0  0  0  0  0  0  0  0  0  0
    2.4006    1.6015    1.8584 H   0  0  0  0  0  0  0  0  0  0  0  0
    0.6388    3.2626    1.6801 H   0  0  0  0  0  0  0  0  0  0  0  0
   -1.0308    2.7227    1.8793 H   0  0  0  0  0  0  0  0  0  0  0  0
    0.5454    2.2358   -2.6960 H   0  0  0  0  0  0  0  0  0  0  0  0
    0.1661    0.5759   -2.2373 H   0  0  0  0  0  0  0  0  0  0  0  0
    5.0407    1.3136   -3.9371 H   0  0  0  0  0  0  0  0  0  0  0  0
    4.0420    3.6182   -3.2190 H   0  0  0  0  0  0  0  0  0  0  0  0
    2.4412    3.5991   -2.5290 H   0  0  0  0  0  0  0  0  0  0  0  0
    2.1919    2.9753    0.3377 H   0  0  0  0  0  0  0  0  0  0  0  0
  1  2  1  0  0  0  0
  1  4  2  0  0  0  0
  2  6  2  0  0  0  0
  3  5  2  0  0  0  0
  3  6  1  0  0  0  0
  4  5  1  0  0  0  0
  4 14  1  0  0  0  0
  5 15  1  0  0  0  0
  6 19  1  0  0  0  0
  7 14  1  0  0  0  0
  7 15  2  0  0  0  0
  7 16  1  0  0  0  0
  8 10  1  0  0  0  0
  8 12  1  0  0  0  0
  9 11  1  0  0  0  0
  9 12  1  0  0  0  0
 10 17  1  0  0  0  0
 11 17  1  0  0  0  0
 12 13  1  0  0  0  0
 12 18  1  0  0  0  0
 13 15  1  0  0  0  0
  1 20  1  0  0  0  0
  2 21  1  0  0  0  0
  3 22  1  0  0  0  0
  8 23  1  0  0  0  0
  8 24  1  0  0  0  0
  9 25  1  0  0  0  0
  9 26  1  0  0  0  0
 10 27  1  0  0  0  0
 10 28  1  0  0  0  0
 11 29  1  0  0  0  0
 11 30  1  0  0  0  0
 13 31  1  0  0  0  0
 13 32  1  0  0  0  0
 14 33  1  0  0  0  0
 16 34  1  0  0  0  0
 16 35  1  0  0  0  0
 18 36  1  0  0  0  0
M  CHG  1  15   1
M  END
$$$$
