
  -OEChem-07202109493D

 31 32  0     0  0  0  0  0  0999 V2000
    5.1125    1.6142   -4.8904 C   0  0  0  0  0  0  0  0  0  0  0  0
    4.2250    0.5830   -4.5004 C   0  0  0  0  0  0  0  0  0  0  0  0
    5.1633    2.4941   -3.8343 C   0  0  0  0  0  0  0  0  0  0  0  0
    3.7969    0.9060   -3.2338 C   0  0  0  0  0  0  0  0  0  0  0  0
   -1.0474    0.7980    0.3712 C   0  0  0  0  0  0  0  0  0  0  0  0
   -0.2329    1.3598   -0.5291 C   0  0  0  0  0  0  0  0  0  0  0  0
   -0.8371   -0.5293    0.9005 C   0  0  0  0  0  0  0  0  0  0  0  0
    0.2048   -1.2802    0.5090 C   0  0  0  0  0  0  0  0  0  0  0  0
    0.9463    0.6036   -1.0204 C   0  0  0  0  0  0  0  0  0  0  0  0
   -0.5661    2.7148   -0.9806 C   0  0  0  0  0  0  0  0  0  0  0  0
    1.2136   -0.8022   -0.4934 C   0  0  0  0  0  0  0  0  0  0  0  0
    2.8596    0.2413   -2.2648 C   0  0  0  0  0  0  0  0  0  0  0  0
   -2.4988   -2.4351    1.2995 N   0  5  0  0  0  0  0  0  0  0  0  0
    1.7583    1.1140   -1.8919 N   0  0  0  0  0  0  0  0  0  0  0  0
   -1.6964    3.1609   -1.0436 O   0  0  0  0  0  0  0  0  0  0  0  0
   -1.1667   -1.4338    3.2581 O   0  0  0  0  0  0  0  0  0  0  0  0
   -2.9587   -0.0853    2.2372 O   0  0  0  0  0  0  0  0  0  0  0  0
    4.3643    2.0695   -2.8204 O   0  0  0  0  0  0  0  0  0  0  0  0
    0.5654    3.3719   -1.3085 O   0  0  0  0  0  0  0  0  0  0  0  0
   -1.9596   -1.1430    2.0601 S   0  0  0  0  0  0  0  0  0  0  0  0
    0.5223   -2.8800    1.0998 Cl  0  0  0  0  0  0  0  0  0  0  0  0
    5.6477    1.7052   -5.8244 H   0  0  0  0  0  0  0  0  0  0  0  0
    3.9352   -0.2860   -5.0739 H   0  0  0  0  0  0  0  0  0  0  0  0
    5.6915    3.4194   -3.6573 H   0  0  0  0  0  0  0  0  0  0  0  0
   -1.9149    1.3391    0.7406 H   0  0  0  0  0  0  0  0  0  0  0  0
    2.2139   -0.7997   -0.0429 H   0  0  0  0  0  0  0  0  0  0  0  0
    1.2306   -1.4791   -1.3565 H   0  0  0  0  0  0  0  0  0  0  0  0
    2.4620   -0.6834   -2.6991 H   0  0  0  0  0  0  0  0  0  0  0  0
    3.4027   -0.0545   -1.3600 H   0  0  0  0  0  0  0  0  0  0  0  0
   -3.1907   -2.9020    1.8962 H   0  0  0  0  0  0  0  0  0  0  0  0
    0.3821    4.2850   -1.6165 H   0  0  0  0  0  0  0  0  0  0  0  0
  1  2  1  0  0  0  0
  1  3  2  0  0  0  0
  2  4  2  0  0  0  0
  3 18  1  0  0  0  0
  4 12  1  0  0  0  0
  4 18  1  0  0  0  0
  5  6  2  0  0  0  0
  5  7  1  0  0  0  0
  6  9  1  0  0  0  0
  6 10  1  0  0  0  0
  7  8  2  0  0  0  0
  7 20  1  0  0  0  0
  8 11  1  0  0  0  0
  8 21  1  0  0  0  0
  9 11  1  0  0  0  0
  9 14  2  0  0  0  0
 10 15  2  0  0  0  0
 10 19  1  0  0  0  0
 12 14  1  0  0  0  0
 13 20  1  0  0  0  0
 16 20  2  0  0  0  0
 17 20  2  0  0  0  0
  1 22  1  0  0  0  0
  2 23  1  0  0  0  0
  3 24  1  0  0  0  0
  5 25  1  0  0  0  0
 11 26  1  0  0  0  0
 11 27  1  0  0  0  0
 12 28  1  0  0  0  0
 12 29  1  0  0  0  0
 13 30  1  0  0  0  0
 19 31  1  0  0  0  0
M  CHG  1  13  -1
M  END
$$$$
