
  -OEChem-07202109493D

 25 26  0     0  0  0  0  0  0999 V2000
    0.8280    1.9270    1.4140 C   0  0  0  0  0  0  0  0  0  0  0  0
   -0.5959    2.0086    1.0769 C   0  0  0  0  0  0  0  0  0  0  0  0
    1.6000    0.9083    0.9954 C   0  0  0  0  0  0  0  0  0  0  0  0
    1.4880   -1.1409   -0.2990 C   0  0  0  0  0  0  0  0  0  0  0  0
   -1.2707    1.1023    0.3342 C   0  0  0  0  0  0  0  0  0  0  0  0
    0.3868   -1.8346   -1.0262 C   0  0  0  0  0  0  0  0  0  0  0  0
   -0.4909   -0.0445   -0.1607 C   0  0  0  0  0  0  0  0  0  0  0  0
    0.5594   -2.9794   -1.6853 C   0  0  0  0  0  0  0  0  0  0  0  0
    2.2449   -4.6339   -2.2448 C   0  0  0  0  0  0  0  0  0  0  0  0
   -2.7213    1.2004   -0.0019 C   0  0  0  0  0  0  0  0  0  0  0  0
   -0.7965   -1.0682   -0.8751 N   0  3  0  0  0  0  0  0  0  0  0  0
    1.0132   -0.0786    0.2271 N   0  3  0  0  0  0  0  0  0  0  0  0
   -0.3584   -3.6028   -2.3192 O   0  5  0  0  0  0  0  0  0  0  0  0
    1.9143   -3.4140   -1.5826 O   0  0  0  0  0  0  0  0  0  0  0  0
   -3.2716    2.3120    0.5323 F   0  0  0  0  0  0  0  0  0  0  0  0
   -2.9119    1.2512   -1.3380 F   0  0  0  0  0  0  0  0  0  0  0  0
   -3.4084    0.1371    0.4688 F   0  0  0  0  0  0  0  0  0  0  0  0
    1.2442    2.7251    2.0195 H   0  0  0  0  0  0  0  0  0  0  0  0
   -1.1145    2.8785    1.4716 H   0  0  0  0  0  0  0  0  0  0  0  0
    2.6529    0.8392    1.2392 H   0  0  0  0  0  0  0  0  0  0  0  0
    2.5206   -1.4983   -0.2388 H   0  0  0  0  0  0  0  0  0  0  0  0
    3.3038   -4.8566   -2.0924 H   0  0  0  0  0  0  0  0  0  0  0  0
    2.0314   -4.5394   -3.3124 H   0  0  0  0  0  0  0  0  0  0  0  0
    1.6409   -5.4415   -1.8245 H   0  0  0  0  0  0  0  0  0  0  0  0
   -1.6982   -1.3181   -1.2744 H   0  0  0  0  0  0  0  0  0  0  0  0
  1  2  1  0  0  0  0
  1  3  2  0  0  0  0
  2  5  2  0  0  0  0
  3 12  1  0  0  0  0
  4  6  1  0  0  0  0
  4 12  2  0  0  0  0
  5  7  1  0  0  0  0
  5 10  1  0  0  0  0
  6  8  2  0  0  0  0
  6 11  1  0  0  0  0
  7 11  2  0  0  0  0
  7 12  1  0  0  0  0
  8 13  1  0  0  0  0
  8 14  1  0  0  0  0
  9 14  1  0  0  0  0
 10 15  1  0  0  0  0
 10 16  1  0  0  0  0
 10 17  1  0  0  0  0
  1 18  1  0  0  0  0
  2 19  1  0  0  0  0
  3 20  1  0  0  0  0
  4 21  1  0  0  0  0
  9 22  1  0  0  0  0
  9 23  1  0  0  0  0
  9 24  1  0  0  0  0
 11 25  1  0  0  0  0
M  CHG  3  11   1  12   1  13  -1
M  END
$$$$
