
  -OEChem-07202109493D

 19 20  0     0  0  0  0  0  0999 V2000
   -0.7362    2.4983   -0.6009 C   0  0  0  0  0  0  0  0  0  0  0  0
   -1.4600    1.3111   -0.4547 C   0  0  0  0  0  0  0  0  0  0  0  0
    1.3453    1.3477   -0.0982 C   0  0  0  0  0  0  0  0  0  0  0  0
    0.6114    0.1807    0.0426 C   0  0  0  0  0  0  0  0  0  0  0  0
    0.6563    2.5164   -0.4240 C   0  0  0  0  0  0  0  0  0  0  0  0
   -0.7722    0.1525   -0.1312 C   0  0  0  0  0  0  0  0  0  0  0  0
    0.1535   -2.0764    0.4401 C   0  0  0  0  0  0  0  0  0  0  0  0
    0.4363   -3.3480    0.7333 C   0  0  0  0  0  0  0  0  0  0  0  0
    1.2078   -1.1120    0.3821 N   0  3  0  0  0  0  0  0  0  0  0  0
    1.3383    3.6865   -0.5707 O   0  0  0  0  0  0  0  0  0  0  0  0
   -1.4423   -1.4702    0.1103 S   0  0  0  0  0  0  0  0  0  0  0  0
   -1.2621    3.4156   -0.8543 H   0  0  0  0  0  0  0  0  0  0  0  0
   -2.5363    1.3101   -0.5939 H   0  0  0  0  0  0  0  0  0  0  0  0
    2.4216    1.3540    0.0395 H   0  0  0  0  0  0  0  0  0  0  0  0
   -0.3495   -4.0925    0.7817 H   0  0  0  0  0  0  0  0  0  0  0  0
    1.4564   -3.6574    0.9280 H   0  0  0  0  0  0  0  0  0  0  0  0
    1.9064   -1.3498   -0.3352 H   0  0  0  0  0  0  0  0  0  0  0  0
    1.6958   -1.0220    1.2839 H   0  0  0  0  0  0  0  0  0  0  0  0
    0.7264    4.4052   -0.7945 H   0  0  0  0  0  0  0  0  0  0  0  0
  1  2  2  0  0  0  0
  1  5  1  0  0  0  0
  2  6  1  0  0  0  0
  3  4  1  0  0  0  0
  3  5  2  0  0  0  0
  4  6  2  0  0  0  0
  4  9  1  0  0  0  0
  5 10  1  0  0  0  0
  6 11  1  0  0  0  0
  7  8  2  0  0  0  0
  7  9  1  0  0  0  0
  7 11  1  0  0  0  0
  1 12  1  0  0  0  0
  2 13  1  0  0  0  0
  3 14  1  0  0  0  0
  8 15  1  0  0  0  0
  8 16  1  0  0  0  0
  9 17  1  0  0  0  0
  9 18  1  0  0  0  0
 10 19  1  0  0  0  0
M  CHG  1   9   1
M  END
$$$$
