
  -OEChem-07202109493D

 36 37  0     0  0  0  0  0  0999 V2000
    0.1911   -9.8685    1.0069 C   0  0  0  0  0  0  0  0  0  0  0  0
    1.5569  -10.1619    0.8218 C   0  0  0  0  0  0  0  0  0  0  0  0
   -0.3143   -8.5910    0.7378 C   0  0  0  0  0  0  0  0  0  0  0  0
    2.4418   -9.1846    0.3646 C   0  0  0  0  0  0  0  0  0  0  0  0
    0.5679   -7.6285    0.2856 C   0  0  0  0  0  0  0  0  0  0  0  0
    1.9091   -7.9398    0.1104 C   0  0  0  0  0  0  0  0  0  0  0  0
    1.4542   -5.7957   -0.4181 C   0  0  0  0  0  0  0  0  0  0  0  0
    2.1271   -2.3548    0.1545 C   0  0  0  0  0  0  0  0  0  0  0  0
    4.4616   -1.7571   -0.9187 C   0  0  0  0  0  0  0  0  0  0  0  0
    3.2525   -1.0714   -3.0109 C   0  0  0  0  0  0  0  0  0  0  0  0
    3.1804    0.4083   -0.9827 C   0  0  0  0  0  0  0  0  0  0  0  0
    1.6549   -4.3909   -0.8665 C   0  0  0  0  0  0  0  0  0  0  0  0
    3.2402   -1.0338   -1.4842 C   0  0  0  0  0  0  0  0  0  0  0  0
    0.3047   -6.2913   -0.0488 N   0  0  0  0  0  0  0  0  0  0  0  0
    1.9485   -3.6183    0.3326 N   0  0  0  0  0  0  0  0  0  0  0  0
    2.5855   -6.7570   -0.3649 N   0  3  0  0  0  0  0  0  0  0  0  0
    2.4089   -1.4673    1.1384 O   0  0  0  0  0  0  0  0  0  0  0  0
    2.0603   -1.7192   -1.0448 O   0  0  0  0  0  0  0  0  0  0  0  0
   -0.4788  -10.6462    1.3645 H   0  0  0  0  0  0  0  0  0  0  0  0
    1.9232  -11.1618    1.0390 H   0  0  0  0  0  0  0  0  0  0  0  0
   -1.3664   -8.3719    0.8822 H   0  0  0  0  0  0  0  0  0  0  0  0
    3.4929   -9.4016    0.2189 H   0  0  0  0  0  0  0  0  0  0  0  0
    4.4565   -1.7324    0.1769 H   0  0  0  0  0  0  0  0  0  0  0  0
    4.4973   -2.8023   -1.2428 H   0  0  0  0  0  0  0  0  0  0  0  0
    5.3886   -1.2650   -1.2347 H   0  0  0  0  0  0  0  0  0  0  0  0
    2.3779   -0.5535   -3.4209 H   0  0  0  0  0  0  0  0  0  0  0  0
    3.1996   -2.1033   -3.3763 H   0  0  0  0  0  0  0  0  0  0  0  0
    4.1547   -0.6047   -3.4193 H   0  0  0  0  0  0  0  0  0  0  0  0
    2.3044    0.9274   -1.3882 H   0  0  0  0  0  0  0  0  0  0  0  0
    3.1338    0.4536    0.1102 H   0  0  0  0  0  0  0  0  0  0  0  0
    4.0574    0.9740   -1.3175 H   0  0  0  0  0  0  0  0  0  0  0  0
    0.7408   -4.0270   -1.3391 H   0  0  0  0  0  0  0  0  0  0  0  0
    2.4883   -4.3479   -1.5706 H   0  0  0  0  0  0  0  0  0  0  0  0
    3.3034   -6.4441    0.2991 H   0  0  0  0  0  0  0  0  0  0  0  0
    2.9863   -6.9041   -1.2986 H   0  0  0  0  0  0  0  0  0  0  0  0
    2.4611   -1.9028    2.0070 H   0  0  0  0  0  0  0  0  0  0  0  0
  1  2  1  0  0  0  0
  1  3  2  0  0  0  0
  2  4  2  0  0  0  0
  3  5  1  0  0  0  0
  4  6  1  0  0  0  0
  5  6  2  0  0  0  0
  5 14  1  0  0  0  0
  6 16  1  0  0  0  0
  7 12  1  0  0  0  0
  7 14  2  0  0  0  0
  7 16  1  0  0  0  0
  8 15  2  0  0  0  0
  8 17  1  0  0  0  0
  8 18  1  0  0  0  0
  9 13  1  0  0  0  0
 10 13  1  0  0  0  0
 11 13  1  0  0  0  0
 12 15  1  0  0  0  0
 13 18  1  0  0  0  0
  1 19  1  0  0  0  0
  2 20  1  0  0  0  0
  3 21  1  0  0  0  0
  4 22  1  0  0  0  0
  9 23  1  0  0  0  0
  9 24  1  0  0  0  0
  9 25  1  0  0  0  0
 10 26  1  0  0  0  0
 10 27  1  0  0  0  0
 10 28  1  0  0  0  0
 11 29  1  0  0  0  0
 11 30  1  0  0  0  0
 11 31  1  0  0  0  0
 12 32  1  0  0  0  0
 12 33  1  0  0  0  0
 16 34  1  0  0  0  0
 16 35  1  0  0  0  0
 17 36  1  0  0  0  0
M  CHG  1  16   1
M  END
$$$$
