
  -OEChem-07202109493D

 39 40  0     0  0  0  0  0  0999 V2000
   -0.0057    4.0272    0.5506 C   0  0  0  0  0  0  0  0  0  0  0  0
    2.2902    3.7654   -0.1545 C   0  0  0  0  0  0  0  0  0  0  0  0
    0.9495    3.3903   -0.2415 C   0  0  0  0  0  0  0  0  0  0  0  0
    1.7203    5.4144    1.5168 C   0  0  0  0  0  0  0  0  0  0  0  0
    0.3797    5.0393    1.4297 C   0  0  0  0  0  0  0  0  0  0  0  0
    2.6756    4.7775    0.7247 C   0  0  0  0  0  0  0  0  0  0  0  0
    0.2659    1.0033   -0.4904 C   0  0  0  0  0  0  0  0  0  0  0  0
   -0.9534    0.4707   -0.2420 C   0  0  0  0  0  0  0  0  0  0  0  0
    1.4393    0.1973   -0.0081 C   0  0  0  0  0  0  0  0  0  0  0  0
   -0.1659   -1.4156    0.8177 C   0  0  0  0  0  0  0  0  0  0  0  0
   -0.8670    5.0507    3.4549 C   0  0  0  0  0  0  0  0  0  0  0  0
    4.8063    4.4038    1.7128 C   0  0  0  0  0  0  0  0  0  0  0  0
   -3.2701    0.4992   -0.3391 C   0  0  0  0  0  0  0  0  0  0  0  0
    0.5340    2.2990   -1.1895 C   0  0  0  0  0  0  0  0  0  0  0  0
   -1.2045   -0.7305    0.4062 N   0  0  0  0  0  0  0  0  0  0  0  0
    2.6544    0.6188   -0.1958 N   0  0  0  0  0  0  0  0  0  0  0  0
    1.1312   -0.9853    0.6281 N   0  0  0  0  0  0  0  0  0  0  0  0
   -0.2683   -2.6157    1.4706 N   0  0  0  0  0  0  0  0  0  0  0  0
    2.0752    6.3465    2.3265 O   0  5  0  0  0  0  0  0  0  0  0  0
   -0.5917    5.6340    2.1851 O   0  0  0  0  0  0  0  0  0  0  0  0
    4.0001    5.1103    0.7751 O   0  0  0  0  0  0  0  0  0  0  0  0
   -2.0771    1.1661   -0.6619 O   0  0  0  0  0  0  0  0  0  0  0  0
   -1.0512    3.7356    0.4837 H   0  0  0  0  0  0  0  0  0  0  0  0
    3.0359    3.2696   -0.7715 H   0  0  0  0  0  0  0  0  0  0  0  0
   -1.6573    5.6174    3.9533 H   0  0  0  0  0  0  0  0  0  0  0  0
    0.0403    5.0571    4.0642 H   0  0  0  0  0  0  0  0  0  0  0  0
   -1.1979    4.0198    3.3084 H   0  0  0  0  0  0  0  0  0  0  0  0
    5.8366    4.7628    1.6521 H   0  0  0  0  0  0  0  0  0  0  0  0
    4.7685    3.3337    1.4937 H   0  0  0  0  0  0  0  0  0  0  0  0
    4.4196    4.5815    2.7191 H   0  0  0  0  0  0  0  0  0  0  0  0
   -4.1227    1.0858   -0.6899 H   0  0  0  0  0  0  0  0  0  0  0  0
   -3.3300    0.3611    0.7434 H   0  0  0  0  0  0  0  0  0  0  0  0
   -3.2757   -0.4769   -0.8298 H   0  0  0  0  0  0  0  0  0  0  0  0
   -0.3654    2.6062   -1.7335 H   0  0  0  0  0  0  0  0  0  0  0  0
    1.3074    2.1407   -1.9479 H   0  0  0  0  0  0  0  0  0  0  0  0
    3.3033   -0.0637    0.2005 H   0  0  0  0  0  0  0  0  0  0  0  0
    1.8911   -1.5650    0.9722 H   0  0  0  0  0  0  0  0  0  0  0  0
   -1.1758   -2.9842    1.6400 H   0  0  0  0  0  0  0  0  0  0  0  0
    0.5685   -3.0732    1.7504 H   0  0  0  0  0  0  0  0  0  0  0  0
  1  3  2  0  0  0  0
  1  5  1  0  0  0  0
  2  3  1  0  0  0  0
  2  6  2  0  0  0  0
  3 14  1  0  0  0  0
  4  5  2  0  0  0  0
  4  6  1  0  0  0  0
  4 19  1  0  0  0  0
  5 20  1  0  0  0  0
  6 21  1  0  0  0  0
  7  8  2  0  0  0  0
  7  9  1  0  0  0  0
  7 14  1  0  0  0  0
  8 15  1  0  0  0  0
  8 22  1  0  0  0  0
  9 16  2  0  0  0  0
  9 17  1  0  0  0  0
 10 15  2  0  0  0  0
 10 17  1  0  0  0  0
 10 18  1  0  0  0  0
 11 20  1  0  0  0  0
 12 21  1  0  0  0  0
 13 22  1  0  0  0  0
  1 23  1  0  0  0  0
  2 24  1  0  0  0  0
 11 25  1  0  0  0  0
 11 26  1  0  0  0  0
 11 27  1  0  0  0  0
 12 28  1  0  0  0  0
 12 29  1  0  0  0  0
 12 30  1  0  0  0  0
 13 31  1  0  0  0  0
 13 32  1  0  0  0  0
 13 33  1  0  0  0  0
 14 34  1  0  0  0  0
 14 35  1  0  0  0  0
 16 36  1  0  0  0  0
 17 37  1  0  0  0  0
 18 38  1  0  0  0  0
 18 39  1  0  0  0  0
M  CHG  1  19  -1
M  END
$$$$
