
  -OEChem-07202109493D

 31 32  0     0  0  0  0  0  0999 V2000
   -3.3535    1.8971    5.4596 C   0  0  0  0  0  0  0  0  0  0  0  0
   -1.9436    1.8063    5.3750 C   0  0  0  0  0  0  0  0  0  0  0  0
    1.8851   -1.0363   -0.1124 C   0  0  0  0  0  0  0  0  0  0  0  0
    1.7997   -1.0786    2.6757 C   0  0  0  0  0  0  0  0  0  0  0  0
   -3.8491    0.8649    4.6975 C   0  0  0  0  0  0  0  0  0  0  0  0
    0.8066   -0.4630    0.5610 C   0  0  0  0  0  0  0  0  0  0  0  0
    0.7638   -0.4841    1.9551 C   0  0  0  0  0  0  0  0  0  0  0  0
    2.9210   -1.6309    0.6081 C   0  0  0  0  0  0  0  0  0  0  0  0
    2.8783   -1.6520    2.0022 C   0  0  0  0  0  0  0  0  0  0  0  0
   -1.6782    0.7248    4.5675 C   0  0  0  0  0  0  0  0  0  0  0  0
   -0.2597    0.1505   -0.2205 C   0  0  0  0  0  0  0  0  0  0  0  0
   -0.4053    0.0935    4.0823 C   0  0  0  0  0  0  0  0  0  0  0  0
    3.9334   -2.1106   -1.8484 N   0  5  0  0  0  0  0  0  0  0  0  0
   -0.3194    0.0914    2.6559 N   0  0  0  0  0  0  0  0  0  0  0  0
   -1.4439    0.2177    0.1184 O   0  0  0  0  0  0  0  0  0  0  0  0
    4.2571   -3.7527    0.1040 O   0  0  0  0  0  0  0  0  0  0  0  0
    5.4403   -1.6054    0.1736 O   0  0  0  0  0  0  0  0  0  0  0  0
   -2.8344    0.1454    4.1504 O   0  0  0  0  0  0  0  0  0  0  0  0
    0.1899    0.6603   -1.3986 O   0  0  0  0  0  0  0  0  0  0  0  0
    4.2498   -2.3351   -0.2914 S   0  0  0  0  0  0  0  0  0  0  0  0
    4.1349   -2.3756    2.9403 Cl  0  0  0  0  0  0  0  0  0  0  0  0
   -3.9356    2.6242    6.0070 H   0  0  0  0  0  0  0  0  0  0  0  0
   -1.2144    2.4507    5.8451 H   0  0  0  0  0  0  0  0  0  0  0  0
    1.9175   -1.0191   -1.1997 H   0  0  0  0  0  0  0  0  0  0  0  0
    1.7615   -1.0924    3.7631 H   0  0  0  0  0  0  0  0  0  0  0  0
   -4.8458    0.5254    4.4568 H   0  0  0  0  0  0  0  0  0  0  0  0
    0.4656    0.6319    4.4718 H   0  0  0  0  0  0  0  0  0  0  0  0
   -0.3260   -0.9438    4.4240 H   0  0  0  0  0  0  0  0  0  0  0  0
    4.6919   -2.5117   -2.4111 H   0  0  0  0  0  0  0  0  0  0  0  0
   -1.0445    0.5076    2.1046 H   0  0  0  0  0  0  0  0  0  0  0  0
   -0.5205    1.0766   -1.9319 H   0  0  0  0  0  0  0  0  0  0  0  0
  1  2  1  0  0  0  0
  1  5  2  0  0  0  0
  2 10  2  0  0  0  0
  3  6  1  0  0  0  0
  3  8  2  0  0  0  0
  4  7  1  0  0  0  0
  4  9  2  0  0  0  0
  5 18  1  0  0  0  0
  6  7  2  0  0  0  0
  6 11  1  0  0  0  0
  7 14  1  0  0  0  0
  8  9  1  0  0  0  0
  8 20  1  0  0  0  0
  9 21  1  0  0  0  0
 10 12  1  0  0  0  0
 10 18  1  0  0  0  0
 11 15  2  0  0  0  0
 11 19  1  0  0  0  0
 12 14  1  0  0  0  0
 13 20  1  0  0  0  0
 16 20  2  0  0  0  0
 17 20  2  0  0  0  0
  1 22  1  0  0  0  0
  2 23  1  0  0  0  0
  3 24  1  0  0  0  0
  4 25  1  0  0  0  0
  5 26  1  0  0  0  0
 12 27  1  0  0  0  0
 12 28  1  0  0  0  0
 13 29  1  0  0  0  0
 14 30  1  0  0  0  0
 19 31  1  0  0  0  0
M  CHG  1  13  -1
M  END
$$$$
