
  -OEChem-07202109493D

 30 31  0     0  0  0  0  0  0999 V2000
    1.5110   -4.6801    0.4486 C   0  0  0  0  0  0  0  0  0  0  0  0
    0.3719   -5.4067    0.1023 C   0  0  0  0  0  0  0  0  0  0  0  0
    1.6980   -3.3935   -0.0567 C   0  0  0  0  0  0  0  0  0  0  0  0
   -0.3933   -3.5601   -1.2549 C   0  0  0  0  0  0  0  0  0  0  0  0
   -0.5803   -4.8467   -0.7495 C   0  0  0  0  0  0  0  0  0  0  0  0
    0.7459   -2.8335   -0.9085 C   0  0  0  0  0  0  0  0  0  0  0  0
   -0.5654    1.6882    0.7521 C   0  0  0  0  0  0  0  0  0  0  0  0
    0.1360    1.8558   -0.4961 C   0  0  0  0  0  0  0  0  0  0  0  0
   -0.7687    0.4729    1.2766 C   0  0  0  0  0  0  0  0  0  0  0  0
    0.6189    0.8203   -1.1947 C   0  0  0  0  0  0  0  0  0  0  0  0
   -0.2903   -0.7210    0.6071 C   0  0  0  0  0  0  0  0  0  0  0  0
    0.4459   -0.5795   -0.6982 C   0  0  0  0  0  0  0  0  0  0  0  0
   -0.5037   -1.9326    1.1426 C   0  0  0  0  0  0  0  0  0  0  0  0
   -1.7985   -5.6234   -1.1199 C   0  0  0  0  0  0  0  0  0  0  0  0
    0.9342   -1.5393   -1.4172 N   0  0  0  0  0  0  0  0  0  0  0  0
   -0.0469   -3.0606    0.5018 O   0  0  0  0  0  0  0  0  0  0  0  0
   -1.1790   -2.0510    2.3348 O   0  0  0  0  0  0  0  0  0  0  0  0
   -1.8496   -6.8651   -0.5529 F   0  0  0  0  0  0  0  0  0  0  0  0
   -2.9661   -5.0165   -0.7537 F   0  0  0  0  0  0  0  0  0  0  0  0
   -1.9000   -5.8309   -2.4651 F   0  0  0  0  0  0  0  0  0  0  0  0
    2.2521   -5.1160    1.1122 H   0  0  0  0  0  0  0  0  0  0  0  0
    0.2340   -6.4084    0.5014 H   0  0  0  0  0  0  0  0  0  0  0  0
    2.5888   -2.8350    0.2187 H   0  0  0  0  0  0  0  0  0  0  0  0
   -1.1363   -3.1232   -1.9185 H   0  0  0  0  0  0  0  0  0  0  0  0
   -0.9264    2.5783    1.2555 H   0  0  0  0  0  0  0  0  0  0  0  0
    0.2665    2.8690   -0.8619 H   0  0  0  0  0  0  0  0  0  0  0  0
   -1.3025    0.3758    2.2171 H   0  0  0  0  0  0  0  0  0  0  0  0
    1.1434    0.9706   -2.1318 H   0  0  0  0  0  0  0  0  0  0  0  0
   -0.3045   -3.8191    1.0527 H   0  0  0  0  0  0  0  0  0  0  0  0
   -1.2223   -3.0005    2.5388 H   0  0  0  0  0  0  0  0  0  0  0  0
  1  2  1  0  0  0  0
  1  3  2  0  0  0  0
  2  5  2  0  0  0  0
  3  6  1  0  0  0  0
  4  5  1  0  0  0  0
  4  6  2  0  0  0  0
  5 14  1  0  0  0  0
  6 15  1  0  0  0  0
  7  8  1  0  0  0  0
  7  9  2  0  0  0  0
  8 10  2  0  0  0  0
  9 11  1  0  0  0  0
 10 12  1  0  0  0  0
 11 12  1  0  0  0  0
 11 13  2  0  0  0  0
 12 15  2  0  0  0  0
 13 16  1  0  0  0  0
 13 17  1  0  0  0  0
 14 18  1  0  0  0  0
 14 19  1  0  0  0  0
 14 20  1  0  0  0  0
  1 21  1  0  0  0  0
  2 22  1  0  0  0  0
  3 23  1  0  0  0  0
  4 24  1  0  0  0  0
  7 25  1  0  0  0  0
  8 26  1  0  0  0  0
  9 27  1  0  0  0  0
 10 28  1  0  0  0  0
 16 29  1  0  0  0  0
 17 30  1  0  0  0  0
M  END
$$$$
