
  -OEChem-07202109493D

 43 45  0     1  0  0  0  0  0999 V2000
    1.4812    0.0680   -6.8509 C   0  0  0  0  0  0  0  0  0  0  0  0
    0.0525    1.8111   -5.2830 C   0  0  0  0  0  0  0  0  0  0  0  0
    0.5426    0.6210   -4.7359 C   0  0  0  0  0  0  0  0  0  0  0  0
    1.2676   -0.2663   -5.5267 C   0  0  0  0  0  0  0  0  0  0  0  0
    0.3255    2.0493   -6.6288 C   0  0  0  0  0  0  0  0  0  0  0  0
   -0.1562    3.2698   -7.2585 C   0  0  0  0  0  0  0  0  0  0  0  0
   -0.8577    4.1617   -6.5565 C   0  0  0  0  0  0  0  0  0  0  0  0
   -1.1728    3.9488   -5.1185 C   0  0  0  0  0  0  0  0  0  0  0  0
    0.8559   -1.4132   -1.1334 C   0  0  0  0  0  0  0  0  0  0  0  0
    1.9483    0.5976   -0.0519 C   0  0  0  0  0  0  0  0  0  0  0  0
    0.5173   -1.9719    0.2486 C   0  0  0  0  0  0  0  0  0  0  0  0
    1.6091    0.0383    1.3297 C   0  0  0  0  0  0  0  0  0  0  0  0
    0.9518    0.1193   -1.1178 C   0  0  1  0  0  0  0  0  0  0  0  0
    1.5185   -1.4848    1.2925 C   0  0  1  0  0  0  0  0  0  0  0  0
   -0.9787    2.5109   -3.1268 C   0  0  0  0  0  0  0  0  0  0  0  0
    1.3428    0.6484   -2.4965 C   0  0  0  0  0  0  0  0  0  0  0  0
    1.0280    1.2040   -7.4218 N   0  0  0  0  0  0  0  0  0  0  0  0
   -0.6989    2.7695   -4.5350 N   0  0  0  0  0  0  0  0  0  0  0  0
    1.0950   -1.9746    2.6310 N   0  3  0  0  0  0  0  0  0  0  0  0
   -1.8254    4.8196   -4.5415 O   0  0  0  0  0  0  0  0  0  0  0  0
    0.3600    0.2397   -3.4292 O   0  0  0  0  0  0  0  0  0  0  0  0
    1.7467   -1.4126   -5.0277 F   0  0  0  0  0  0  0  0  0  0  0  0
    2.0395   -0.5897   -7.5080 H   0  0  0  0  0  0  0  0  0  0  0  0
    0.0671    3.4377   -8.3063 H   0  0  0  0  0  0  0  0  0  0  0  0
   -1.2190    5.0736   -7.0195 H   0  0  0  0  0  0  0  0  0  0  0  0
    1.8065   -1.8435   -1.4740 H   0  0  0  0  0  0  0  0  0  0  0  0
    0.0897   -1.7323   -1.8500 H   0  0  0  0  0  0  0  0  0  0  0  0
    1.9504    1.6933   -0.0068 H   0  0  0  0  0  0  0  0  0  0  0  0
    2.9651    0.2881   -0.3260 H   0  0  0  0  0  0  0  0  0  0  0  0
   -0.4991   -1.6585    0.5203 H   0  0  0  0  0  0  0  0  0  0  0  0
    0.5161   -3.0675    0.2055 H   0  0  0  0  0  0  0  0  0  0  0  0
    2.3763    0.3553    2.0460 H   0  0  0  0  0  0  0  0  0  0  0  0
    0.6561    0.4685    1.6639 H   0  0  0  0  0  0  0  0  0  0  0  0
   -0.0384    0.5246   -0.8700 H   0  0  0  0  0  0  0  0  0  0  0  0
    2.5066   -1.9215    1.1072 H   0  0  0  0  0  0  0  0  0  0  0  0
   -0.1704    2.9292   -2.5090 H   0  0  0  0  0  0  0  0  0  0  0  0
   -1.9332    2.9826   -2.8501 H   0  0  0  0  0  0  0  0  0  0  0  0
   -1.0439    1.4257   -2.9593 H   0  0  0  0  0  0  0  0  0  0  0  0
    2.3101    0.2411   -2.7885 H   0  0  0  0  0  0  0  0  0  0  0  0
    1.3912    1.7364   -2.4755 H   0  0  0  0  0  0  0  0  0  0  0  0
    1.8895   -1.9997    3.2771 H   0  0  0  0  0  0  0  0  0  0  0  0
    0.7074   -2.9208    2.5653 H   0  0  0  0  0  0  0  0  0  0  0  0
    0.3773   -1.3631    3.0316 H   0  0  0  0  0  0  0  0  0  0  0  0
  1  4  1  0  0  0  0
  1 17  2  0  0  0  0
  2  3  1  0  0  0  0
  2  5  2  0  0  0  0
  2 18  1  0  0  0  0
  3  4  2  0  0  0  0
  3 21  1  0  0  0  0
  4 22  1  0  0  0  0
  5  6  1  0  0  0  0
  5 17  1  0  0  0  0
  6  7  2  0  0  0  0
  7  8  1  0  0  0  0
  8 18  1  0  0  0  0
  8 20  2  0  0  0  0
  9 11  1  0  0  0  0
  9 13  1  0  0  0  0
 10 12  1  0  0  0  0
 10 13  1  0  0  0  0
 11 14  1  0  0  0  0
 12 14  1  0  0  0  0
 13 16  1  0  0  0  0
 14 19  1  0  0  0  0
 15 18  1  0  0  0  0
 16 21  1  0  0  0  0
  1 23  1  0  0  0  0
  6 24  1  0  0  0  0
  7 25  1  0  0  0  0
  9 26  1  0  0  0  0
  9 27  1  0  0  0  0
 10 28  1  0  0  0  0
 10 29  1  0  0  0  0
 11 30  1  0  0  0  0
 11 31  1  0  0  0  0
 12 32  1  0  0  0  0
 12 33  1  0  0  0  0
 13 34  1  0  0  0  0
 14 35  1  0  0  0  0
 15 36  1  0  0  0  0
 15 37  1  0  0  0  0
 15 38  1  0  0  0  0
 16 39  1  0  0  0  0
 16 40  1  0  0  0  0
 19 41  1  0  0  0  0
 19 42  1  0  0  0  0
 19 43  1  0  0  0  0
M  CHG  1  19   1
M  END
$$$$
