
  -OEChem-07202109483D

 35 36  0     0  0  0  0  0  0999 V2000
    3.3027    2.2223    2.2978 C   0  0  0  0  0  0  0  0  0  0  0  0
    2.2945    1.5835    1.5723 C   0  0  0  0  0  0  0  0  0  0  0  0
    3.6712    1.7714    3.5716 C   0  0  0  0  0  0  0  0  0  0  0  0
    1.6190    0.4737    2.0907 C   0  0  0  0  0  0  0  0  0  0  0  0
    3.0030    0.6578    4.1079 C   0  0  0  0  0  0  0  0  0  0  0  0
    2.0027    0.0422    3.3609 C   0  0  0  0  0  0  0  0  0  0  0  0
    2.2945   -0.9557    5.3138 C   0  0  0  0  0  0  0  0  0  0  0  0
    0.8144   -0.8358    8.2342 C   0  0  0  0  0  0  0  0  0  0  0  0
   -0.3005    1.4752    9.4855 C   0  0  0  0  0  0  0  0  0  0  0  0
   -2.1345   -0.0567   10.2594 C   0  0  0  0  0  0  0  0  0  0  0  0
    0.2290   -0.4570   11.0089 C   0  0  0  0  0  0  0  0  0  0  0  0
    2.0674   -1.9408    6.3876 C   0  0  0  0  0  0  0  0  0  0  0  0
   -0.6608    0.0412    9.8710 C   0  0  0  0  0  0  0  0  0  0  0  0
    3.1703    0.0241    5.3178 N   0  0  0  0  0  0  0  0  0  0  0  0
    1.5673   -0.9864    4.1565 N   0  0  0  0  0  0  0  0  0  0  0  0
    0.8631   -1.6804    7.1469 N   0  0  0  0  0  0  0  0  0  0  0  0
    1.7595   -0.2050    8.6962 O   0  0  0  0  0  0  0  0  0  0  0  0
   -0.4581   -0.8016    8.7312 O   0  0  0  0  0  0  0  0  0  0  0  0
    3.8098    3.0824    1.8677 H   0  0  0  0  0  0  0  0  0  0  0  0
    2.0281    1.9562    0.5862 H   0  0  0  0  0  0  0  0  0  0  0  0
    4.4567    2.2744    4.1264 H   0  0  0  0  0  0  0  0  0  0  0  0
    0.8370   -0.0240    1.5286 H   0  0  0  0  0  0  0  0  0  0  0  0
    0.7565    1.5497    9.2061 H   0  0  0  0  0  0  0  0  0  0  0  0
   -0.9078    1.8323    8.6474 H   0  0  0  0  0  0  0  0  0  0  0  0
   -0.4451    2.1558   10.3324 H   0  0  0  0  0  0  0  0  0  0  0  0
   -2.3974   -1.0840   10.5368 H   0  0  0  0  0  0  0  0  0  0  0  0
   -2.7794    0.2094    9.4142 H   0  0  0  0  0  0  0  0  0  0  0  0
   -2.3753    0.6018   11.1002 H   0  0  0  0  0  0  0  0  0  0  0  0
   -0.0292   -1.4856   11.2856 H   0  0  0  0  0  0  0  0  0  0  0  0
    1.2885   -0.4286   10.7344 H   0  0  0  0  0  0  0  0  0  0  0  0
    0.0863    0.1506   11.9098 H   0  0  0  0  0  0  0  0  0  0  0  0
    1.9773   -2.9688    5.9922 H   0  0  0  0  0  0  0  0  0  0  0  0
    2.8986   -1.9676    7.1150 H   0  0  0  0  0  0  0  0  0  0  0  0
    0.8385   -1.6486    3.9251 H   0  0  0  0  0  0  0  0  0  0  0  0
    0.0078   -2.1453    6.8629 H   0  0  0  0  0  0  0  0  0  0  0  0
  1  2  1  0  0  0  0
  1  3  2  0  0  0  0
  2  4  2  0  0  0  0
  3  5  1  0  0  0  0
  4  6  1  0  0  0  0
  5  6  2  0  0  0  0
  5 14  1  0  0  0  0
  6 15  1  0  0  0  0
  7 12  1  0  0  0  0
  7 14  2  0  0  0  0
  7 15  1  0  0  0  0
  8 16  1  0  0  0  0
  8 17  2  0  0  0  0
  8 18  1  0  0  0  0
  9 13  1  0  0  0  0
 10 13  1  0  0  0  0
 11 13  1  0  0  0  0
 12 16  1  0  0  0  0
 13 18  1  0  0  0  0
  1 19  1  0  0  0  0
  2 20  1  0  0  0  0
  3 21  1  0  0  0  0
  4 22  1  0  0  0  0
  9 23  1  0  0  0  0
  9 24  1  0  0  0  0
  9 25  1  0  0  0  0
 10 26  1  0  0  0  0
 10 27  1  0  0  0  0
 10 28  1  0  0  0  0
 11 29  1  0  0  0  0
 11 30  1  0  0  0  0
 11 31  1  0  0  0  0
 12 32  1  0  0  0  0
 12 33  1  0  0  0  0
 15 34  1  0  0  0  0
 16 35  1  0  0  0  0
M  END
$$$$
