
  -OEChem-07202109493D

 30 31  0     0  0  0  0  0  0999 V2000
    1.9580   -1.0368   -0.1093 C   0  0  0  0  0  0  0  0  0  0  0  0
    2.8591   -0.2921    0.6517 C   0  0  0  0  0  0  0  0  0  0  0  0
    3.3560   -0.2269    7.3033 C   0  0  0  0  0  0  0  0  0  0  0  0
    0.9777   -1.8023    0.5222 C   0  0  0  0  0  0  0  0  0  0  0  0
    4.6662   -0.6386    7.0595 C   0  0  0  0  0  0  0  0  0  0  0  0
    2.7800   -0.3131    2.0442 C   0  0  0  0  0  0  0  0  0  0  0  0
    2.3828   -0.3760    6.3152 C   0  0  0  0  0  0  0  0  0  0  0  0
    4.0300   -1.3485    4.8395 C   0  0  0  0  0  0  0  0  0  0  0  0
    0.8986   -1.8233    1.9146 C   0  0  0  0  0  0  0  0  0  0  0  0
    5.0032   -1.1993    5.8276 C   0  0  0  0  0  0  0  0  0  0  0  0
    2.7198   -0.9368    5.0833 C   0  0  0  0  0  0  0  0  0  0  0  0
    1.7997   -1.0786    2.6757 C   0  0  0  0  0  0  0  0  0  0  0  0
   -0.1366   -2.6336    2.5441 C   0  0  0  0  0  0  0  0  0  0  0  0
    6.4043   -1.6387    5.5670 C   0  0  0  0  0  0  0  0  0  0  0  0
    1.7380   -1.0876    4.0870 N   0  0  0  0  0  0  0  0  0  0  0  0
   -0.0459   -3.1724    3.6500 O   0  0  0  0  0  0  0  0  0  0  0  0
   -1.2502   -2.7420    1.7710 O   0  0  0  0  0  0  0  0  0  0  0  0
    7.2481   -1.4320    6.6212 F   0  0  0  0  0  0  0  0  0  0  0  0
    6.5154   -2.9691    5.2780 F   0  0  0  0  0  0  0  0  0  0  0  0
    6.9716   -0.9861    4.5109 F   0  0  0  0  0  0  0  0  0  0  0  0
    2.0188   -1.0203   -1.1935 H   0  0  0  0  0  0  0  0  0  0  0  0
    3.6227    0.3033    0.1599 H   0  0  0  0  0  0  0  0  0  0  0  0
    3.0936    0.2098    8.2627 H   0  0  0  0  0  0  0  0  0  0  0  0
    0.2827   -2.3791   -0.0827 H   0  0  0  0  0  0  0  0  0  0  0  0
    5.4182   -0.5185    7.8352 H   0  0  0  0  0  0  0  0  0  0  0  0
    3.4878    0.2714    2.6264 H   0  0  0  0  0  0  0  0  0  0  0  0
    1.3647   -0.0521    6.5160 H   0  0  0  0  0  0  0  0  0  0  0  0
    4.2944   -1.7862    3.8796 H   0  0  0  0  0  0  0  0  0  0  0  0
    0.8012   -1.2302    4.4502 H   0  0  0  0  0  0  0  0  0  0  0  0
   -1.9537   -3.2850    2.1864 H   0  0  0  0  0  0  0  0  0  0  0  0
  1  2  1  0  0  0  0
  1  4  2  0  0  0  0
  2  6  2  0  0  0  0
  3  5  1  0  0  0  0
  3  7  2  0  0  0  0
  4  9  1  0  0  0  0
  5 10  2  0  0  0  0
  6 12  1  0  0  0  0
  7 11  1  0  0  0  0
  8 10  1  0  0  0  0
  8 11  2  0  0  0  0
  9 12  2  0  0  0  0
  9 13  1  0  0  0  0
 10 14  1  0  0  0  0
 11 15  1  0  0  0  0
 12 15  1  0  0  0  0
 13 16  2  0  0  0  0
 13 17  1  0  0  0  0
 14 18  1  0  0  0  0
 14 19  1  0  0  0  0
 14 20  1  0  0  0  0
  1 21  1  0  0  0  0
  2 22  1  0  0  0  0
  3 23  1  0  0  0  0
  4 24  1  0  0  0  0
  5 25  1  0  0  0  0
  6 26  1  0  0  0  0
  7 27  1  0  0  0  0
  8 28  1  0  0  0  0
 15 29  1  0  0  0  0
 17 30  1  0  0  0  0
M  END
$$$$
