
  -OEChem-07202109483D

 47 50  0     0  0  0  0  0  0999 V2000
   -2.6393    1.3875    4.9707 C   0  0  0  0  0  0  0  0  0  0  0  0
   -1.4837    1.2549    5.7441 C   0  0  0  0  0  0  0  0  0  0  0  0
   -2.9070    0.5052    3.9165 C   0  0  0  0  0  0  0  0  0  0  0  0
   -0.5554    0.2389    5.4938 C   0  0  0  0  0  0  0  0  0  0  0  0
   -3.2942    2.7132    0.3816 C   0  0  0  0  0  0  0  0  0  0  0  0
   -1.4675    4.1052    0.8081 C   0  0  0  0  0  0  0  0  0  0  0  0
   -1.9924    3.0574    0.0795 C   0  0  0  0  0  0  0  0  0  0  0  0
   -1.9850   -0.5214    3.6508 C   0  0  0  0  0  0  0  0  0  0  0  0
   -0.8426   -0.6280    4.4390 C   0  0  0  0  0  0  0  0  0  0  0  0
   -0.9097   -2.1982    2.8818 C   0  0  0  0  0  0  0  0  0  0  0  0
   -3.4112    4.3424    1.9625 C   0  0  0  0  0  0  0  0  0  0  0  0
   -1.3776   -0.1374   -0.6499 C   0  0  0  0  0  0  0  0  0  0  0  0
   -0.6951    1.0086   -0.5091 C   0  0  0  0  0  0  0  0  0  0  0  0
    0.6374    0.9683    0.1481 C   0  0  0  0  0  0  0  0  0  0  0  0
    0.2830   -1.4285    0.3780 C   0  0  0  0  0  0  0  0  0  0  0  0
    1.0851   -2.2339    4.4044 C   0  0  0  0  0  0  0  0  0  0  0  0
   -5.4678    4.5500    3.1387 C   0  0  0  0  0  0  0  0  0  0  0  0
   -1.1967    2.3365   -0.9752 C   0  0  0  0  0  0  0  0  0  0  0  0
   -0.4664   -3.3904    2.0794 C   0  0  0  0  0  0  0  0  0  0  0  0
   -4.0357    3.3366    1.3207 N   0  0  0  0  0  0  0  0  0  0  0  0
   -2.1512    4.7727    1.7605 N   0  0  0  0  0  0  0  0  0  0  0  0
   -2.0095   -1.5052    2.6891 N   0  0  0  0  0  0  0  0  0  0  0  0
   -0.1734   -1.7089    3.9247 N   0  0  0  0  0  0  0  0  0  0  0  0
   -0.9033   -1.3529   -0.2143 N   0  0  0  0  0  0  0  0  0  0  0  0
    1.0361   -0.3471    0.5640 N   0  3  0  0  0  0  0  0  0  0  0  0
    1.3626    1.9299    0.3407 O   0  0  0  0  0  0  0  0  0  0  0  0
   -4.1382    5.0019    2.9261 O   0  0  0  0  0  0  0  0  0  0  0  0
    0.8537   -2.9773    0.9176 S   0  0  0  0  0  0  0  0  0  0  0  0
   -3.3427    2.1864    5.1905 H   0  0  0  0  0  0  0  0  0  0  0  0
   -1.3013    1.9546    6.5562 H   0  0  0  0  0  0  0  0  0  0  0  0
   -3.8080    0.6165    3.3222 H   0  0  0  0  0  0  0  0  0  0  0  0
    0.3409    0.1361    6.0951 H   0  0  0  0  0  0  0  0  0  0  0  0
   -3.7978    1.9020   -0.1345 H   0  0  0  0  0  0  0  0  0  0  0  0
   -0.4519    4.4527    0.6456 H   0  0  0  0  0  0  0  0  0  0  0  0
   -2.3536   -0.1627   -1.1217 H   0  0  0  0  0  0  0  0  0  0  0  0
    0.8680   -2.9835    5.1698 H   0  0  0  0  0  0  0  0  0  0  0  0
    1.6325   -2.6848    3.5720 H   0  0  0  0  0  0  0  0  0  0  0  0
    1.6803   -1.4182    4.8244 H   0  0  0  0  0  0  0  0  0  0  0  0
   -5.9362    5.1497    3.9229 H   0  0  0  0  0  0  0  0  0  0  0  0
   -5.4533    3.4967    3.4302 H   0  0  0  0  0  0  0  0  0  0  0  0
   -6.0337    4.6615    2.2108 H   0  0  0  0  0  0  0  0  0  0  0  0
   -1.8151    2.1959   -1.8689 H   0  0  0  0  0  0  0  0  0  0  0  0
   -0.3459    2.9500   -1.2912 H   0  0  0  0  0  0  0  0  0  0  0  0
   -0.1155   -4.1866    2.7453 H   0  0  0  0  0  0  0  0  0  0  0  0
   -1.3126   -3.8026    1.5186 H   0  0  0  0  0  0  0  0  0  0  0  0
   -1.4553   -2.1939   -0.3424 H   0  0  0  0  0  0  0  0  0  0  0  0
    1.9305   -0.4856    1.0244 H   0  0  0  0  0  0  0  0  0  0  0  0
  1  2  1  0  0  0  0
  1  3  2  0  0  0  0
  2  4  2  0  0  0  0
  3  8  1  0  0  0  0
  4  9  1  0  0  0  0
  5  7  1  0  0  0  0
  5 20  2  0  0  0  0
  6  7  2  0  0  0  0
  6 21  1  0  0  0  0
  7 18  1  0  0  0  0
  8  9  2  0  0  0  0
  8 22  1  0  0  0  0
  9 23  1  0  0  0  0
 10 19  1  0  0  0  0
 10 22  2  0  0  0  0
 10 23  1  0  0  0  0
 11 20  1  0  0  0  0
 11 21  2  0  0  0  0
 11 27  1  0  0  0  0
 12 13  2  0  0  0  0
 12 24  1  0  0  0  0
 13 14  1  0  0  0  0
 13 18  1  0  0  0  0
 14 25  1  0  0  0  0
 14 26  2  0  0  0  0
 15 24  1  0  0  0  0
 15 25  2  0  0  0  0
 15 28  1  0  0  0  0
 16 23  1  0  0  0  0
 17 27  1  0  0  0  0
 19 28  1  0  0  0  0
  1 29  1  0  0  0  0
  2 30  1  0  0  0  0
  3 31  1  0  0  0  0
  4 32  1  0  0  0  0
  5 33  1  0  0  0  0
  6 34  1  0  0  0  0
 12 35  1  0  0  0  0
 16 36  1  0  0  0  0
 16 37  1  0  0  0  0
 16 38  1  0  0  0  0
 17 39  1  0  0  0  0
 17 40  1  0  0  0  0
 17 41  1  0  0  0  0
 18 42  1  0  0  0  0
 18 43  1  0  0  0  0
 19 44  1  0  0  0  0
 19 45  1  0  0  0  0
 24 46  1  0  0  0  0
 25 47  1  0  0  0  0
M  CHG  1  25   1
M  END
$$$$
