
  -OEChem-07202109483D

 48 51  0     0  0  0  0  0  0999 V2000
   -7.1987   -2.3755   12.3688 C   0  0  0  0  0  0  0  0  0  0  0  0
   -5.9561   -1.8215   12.7439 C   0  0  0  0  0  0  0  0  0  0  0  0
   -7.4354   -2.8508   11.0710 C   0  0  0  0  0  0  0  0  0  0  0  0
   -4.8897   -1.7156   11.8395 C   0  0  0  0  0  0  0  0  0  0  0  0
  -10.5141   -0.6911    9.5864 C   0  0  0  0  0  0  0  0  0  0  0  0
   -9.8175    1.4133   10.3231 C   0  0  0  0  0  0  0  0  0  0  0  0
   -9.9937    0.5458    9.2645 C   0  0  0  0  0  0  0  0  0  0  0  0
   -6.3693   -2.7392   10.1862 C   0  0  0  0  0  0  0  0  0  0  0  0
   -5.1395   -2.1908   10.5575 C   0  0  0  0  0  0  0  0  0  0  0  0
   -5.0190   -2.7931    8.4205 C   0  0  0  0  0  0  0  0  0  0  0  0
  -10.6223   -0.1289   11.7863 C   0  0  0  0  0  0  0  0  0  0  0  0
   -8.2747   -0.8850    6.7917 C   0  0  0  0  0  0  0  0  0  0  0  0
   -8.3566    0.3096    7.3960 C   0  0  0  0  0  0  0  0  0  0  0  0
   -7.1051    1.0755    7.6334 C   0  0  0  0  0  0  0  0  0  0  0  0
   -5.9458   -0.7841    6.5746 C   0  0  0  0  0  0  0  0  0  0  0  0
   -2.9670   -1.7822    9.3566 C   0  0  0  0  0  0  0  0  0  0  0  0
  -11.4745   -1.7771   13.2740 C   0  0  0  0  0  0  0  0  0  0  0  0
   -9.6403    0.9237    7.8512 C   0  0  0  0  0  0  0  0  0  0  0  0
   -4.5188   -3.0313    7.0432 C   0  0  0  0  0  0  0  0  0  0  0  0
  -10.8408   -1.0632   10.8414 N   0  0  0  0  0  0  0  0  0  0  0  0
  -10.1224    1.1078   11.6014 N   0  0  0  0  0  0  0  0  0  0  0  0
   -6.2451   -3.0959    8.8591 N   0  0  0  0  0  0  0  0  0  0  0  0
   -4.3402   -2.2460    9.4342 N   0  3  0  0  0  0  0  0  0  0  0  0
   -7.0848   -1.4386    6.3793 N   0  0  0  0  0  0  0  0  0  0  0  0
   -5.9228    0.4081    7.1655 N   0  3  0  0  0  0  0  0  0  0  0  0
   -7.0335    2.1686    8.1695 O   0  0  0  0  0  0  0  0  0  0  0  0
  -10.9455   -0.4736   13.0781 O   0  0  0  0  0  0  0  0  0  0  0  0
   -4.4594   -1.5100    6.0431 S   0  0  0  0  0  0  0  0  0  0  0  0
   -7.9944   -2.4349   13.1081 H   0  0  0  0  0  0  0  0  0  0  0  0
   -5.8232   -1.4669   13.7636 H   0  0  0  0  0  0  0  0  0  0  0  0
   -8.3834   -3.2777   10.7703 H   0  0  0  0  0  0  0  0  0  0  0  0
   -3.9336   -1.2921   12.1192 H   0  0  0  0  0  0  0  0  0  0  0  0
  -10.6896   -1.4450    8.8256 H   0  0  0  0  0  0  0  0  0  0  0  0
   -9.4148    2.4105   10.1747 H   0  0  0  0  0  0  0  0  0  0  0  0
   -9.1572   -1.4837    6.5955 H   0  0  0  0  0  0  0  0  0  0  0  0
   -2.2993   -2.6070    9.6205 H   0  0  0  0  0  0  0  0  0  0  0  0
   -2.7371   -1.4373    8.3445 H   0  0  0  0  0  0  0  0  0  0  0  0
   -2.8189   -0.9508   10.0517 H   0  0  0  0  0  0  0  0  0  0  0  0
  -11.6894   -1.9283   14.3347 H   0  0  0  0  0  0  0  0  0  0  0  0
  -10.7517   -2.5203   12.9281 H   0  0  0  0  0  0  0  0  0  0  0  0
  -12.3987   -1.8757   12.6997 H   0  0  0  0  0  0  0  0  0  0  0  0
  -10.4473    0.6160    7.1766 H   0  0  0  0  0  0  0  0  0  0  0  0
   -9.5691    2.0129    7.7583 H   0  0  0  0  0  0  0  0  0  0  0  0
   -3.5075   -3.4702    7.0565 H   0  0  0  0  0  0  0  0  0  0  0  0
   -5.1521   -3.7613    6.5127 H   0  0  0  0  0  0  0  0  0  0  0  0
   -6.9767   -3.5249    8.2987 H   0  0  0  0  0  0  0  0  0  0  0  0
   -7.0716   -2.3457    5.9262 H   0  0  0  0  0  0  0  0  0  0  0  0
   -5.0134    0.8454    7.2792 H   0  0  0  0  0  0  0  0  0  0  0  0
  1  2  1  0  0  0  0
  1  3  2  0  0  0  0
  2  4  2  0  0  0  0
  3  8  1  0  0  0  0
  4  9  1  0  0  0  0
  5  7  1  0  0  0  0
  5 20  2  0  0  0  0
  6  7  2  0  0  0  0
  6 21  1  0  0  0  0
  7 18  1  0  0  0  0
  8  9  2  0  0  0  0
  8 22  1  0  0  0  0
  9 23  1  0  0  0  0
 10 19  1  0  0  0  0
 10 22  1  0  0  0  0
 10 23  2  0  0  0  0
 11 20  1  0  0  0  0
 11 21  2  0  0  0  0
 11 27  1  0  0  0  0
 12 13  2  0  0  0  0
 12 24  1  0  0  0  0
 13 14  1  0  0  0  0
 13 18  1  0  0  0  0
 14 25  1  0  0  0  0
 14 26  2  0  0  0  0
 15 24  1  0  0  0  0
 15 25  2  0  0  0  0
 15 28  1  0  0  0  0
 16 23  1  0  0  0  0
 17 27  1  0  0  0  0
 19 28  1  0  0  0  0
  1 29  1  0  0  0  0
  2 30  1  0  0  0  0
  3 31  1  0  0  0  0
  4 32  1  0  0  0  0
  5 33  1  0  0  0  0
  6 34  1  0  0  0  0
 12 35  1  0  0  0  0
 16 36  1  0  0  0  0
 16 37  1  0  0  0  0
 16 38  1  0  0  0  0
 17 39  1  0  0  0  0
 17 40  1  0  0  0  0
 17 41  1  0  0  0  0
 18 42  1  0  0  0  0
 18 43  1  0  0  0  0
 19 44  1  0  0  0  0
 19 45  1  0  0  0  0
 22 46  1  0  0  0  0
 24 47  1  0  0  0  0
 25 48  1  0  0  0  0
M  CHG  2  23   1  25   1
M  END
$$$$
